data/nesta/api/nesta_case1397sp_eir__api.m
%%%%%%%%%%%%%%%%%%%%%%%%%%%%%%%%%%%%%%%%%%%%%%%%%%%%%%%%%%%%%%%%%%%%%%%%%%%
%%%%                                                                  %%%%%
%%%%      NICTA Energy System Test Case Archive (NESTA) - v0.1.5      %%%%%
%%%%            Optimal Power Flow - Active Power Increase            %%%%%
%%%%                       30 - October - 2014                        %%%%%
%%%%                                                                  %%%%%
%%%%%%%%%%%%%%%%%%%%%%%%%%%%%%%%%%%%%%%%%%%%%%%%%%%%%%%%%%%%%%%%%%%%%%%%%%%
function mpc = nesta_case1397sp_eir__api
mpc.version = '2';
mpc.baseMVA = 100.0;

%% bus data
%	bus_i	type	Pd	Qd	Gs	Bs	area	Vm	Va	baseKV	zone	Vmax	Vmin
mpc.bus = [
	10	 1	 59.14	 29.49	 0.0	 0.0	 2	     1.0423	     0.0000	 38.0	 1	     1.1500	     0.8500;
	11	 1	 39.63	 20.42	 0.0	 0.0	 2	     1.0571	     0.0000	 38.0	 1	     1.1500	     0.8500;
	12	 1	 6.71	 1.60	 0.0	 0.0	 1	     1.0533	     0.0000	 38.0	 1	     1.1500	     0.8500;
	13	 1	 36.15	 8.59	 0.0	 0.0	 1	     1.0580	     0.0000	 38.0	 1	     1.1500	     0.8500;
	14	 1	 55.83	 13.32	 0.0	 0.0	 2	     1.0467	     0.0000	 38.0	 1	     1.1500	     0.8500;
	15	 1	 58.62	 14.00	 0.0	 0.0	 2	     1.0621	     0.0000	 38.0	 1	     1.1500	     0.8500;
	1021	 1	 0.00	 0.00	 0.0	 0.0	 4	     1.0484	     0.0000	 110.0	 1	     1.1500	     0.8500;
	1041	 1	 1.76	 0.06	 0.0	 0.0	 3	     1.0406	     0.0000	 110.0	 1	     1.1500	     0.8500;
	1042	 1	 0.00	 0.00	 0.0	 0.0	 3	     1.0400	     0.0000	 220.0	 1	     1.1500	     0.8500;
	1052	 1	 0.00	 0.00	 0.0	 0.0	 3	     1.0407	     0.0000	 220.0	 1	     1.1500	     0.8500;
	1061	 1	 0.00	 0.00	 0.0	 0.0	 9	     1.0464	     0.0000	 110.0	 1	     1.1500	     0.8500;
	1062	 1	 0.00	 0.00	 0.0	 0.0	 3	     1.0400	     0.0000	 220.0	 1	     1.1500	     0.8500;
	1071	 1	 0.00	 0.00	 0.0	 0.0	 4	     1.0639	     0.0000	 110.0	 1	     1.1500	     0.8500;
	1072	 1	 0.00	 0.00	 0.0	 0.0	 3	     1.0400	     0.0000	 220.0	 1	     1.1500	     0.8500;
	1081	 1	 0.00	 0.00	 0.0	 0.0	 7	     1.0489	     0.0000	 110.0	 1	     1.1500	     0.8500;
	1101	 1	 22.91	 4.98	 0.0	 0.0	 5	     1.0428	     0.0000	 110.0	 1	     1.1500	     0.8500;
	1121	 1	 0.00	 0.00	 0.0	 0.0	 6	     1.0621	     0.0000	 110.0	 1	     1.1500	     0.8500;
	1122	 1	 0.00	 0.00	 0.0	 0.0	 6	     1.0590	     0.0000	 220.0	 1	     1.1500	     0.8500;
	1141	 1	 0.00	 0.00	 0.0	 0.0	 9	     1.0695	     0.0000	 110.0	 1	     1.1500	     0.8500;
	1161	 1	 0.00	 0.00	 0.0	 0.0	 7	     1.0500	     0.0000	 110.0	 1	     1.1500	     0.8500;
	1181	 1	 0.00	 0.00	 0.0	 0.0	 10	     1.0408	     0.0000	 110.0	 1	     1.1500	     0.8500;
	1201	 1	 0.00	 0.00	 0.0	 0.0	 1	     1.0590	     0.0000	 110.0	 1	     1.1500	     0.8500;
	1221	 1	 0.00	 0.00	 0.0	 0.0	 8	     1.0485	     0.0000	 110.0	 1	     1.1500	     0.8500;
	1231	 1	 0.00	 0.00	 0.0	 0.0	 6	     1.0570	     0.0000	 110.0	 1	     1.1500	     0.8500;
	1251	 1	 0.00	 0.00	 0.0	 0.0	 4	     1.0500	     0.0000	 110.0	 1	     1.1500	     0.8500;
	1271	 1	 0.00	 0.00	 0.0	 0.0	 10	     1.0471	     0.0000	 110.0	 1	     1.1500	     0.8500;
	1281	 1	 0.00	 0.00	 0.0	 0.0	 3	     1.0455	     0.0000	 110.0	 1	     1.1500	     0.8500;
	1301	 1	 0.00	 0.00	 0.0	 0.0	 6	     1.0592	     0.0000	 110.0	 1	     1.1500	     0.8500;
	1321	 1	 0.00	 0.00	 0.0	 0.0	 8	     1.0499	     0.0000	 110.0	 1	     1.1500	     0.8500;
	1341	 1	 0.00	 0.00	 0.0	 0.0	 9	     1.0060	     0.0000	 110.0	 1	     1.1500	     0.8500;
	1351	 1	 0.00	 0.00	 0.0	 0.0	 8	     1.0533	     0.0000	 110.0	 1	     1.1500	     0.8500;
	1361	 1	 0.00	 0.00	 0.0	 0.0	 5	     1.0382	     0.0000	 110.0	 1	     1.1500	     0.8500;
	1381	 1	 0.00	 0.00	 0.0	 0.0	 3	     1.0388	     0.0000	 110.0	 1	     1.1500	     0.8500;
	1391	 1	 0.00	 0.00	 0.0	 0.0	 3	     1.0488	     0.0000	 110.0	 1	     1.1500	     0.8500;
	1401	 1	 0.00	 0.00	 0.0	 0.0	 9	     1.0425	     0.0000	 110.0	 1	     1.1500	     0.8500;
	1421	 1	 0.00	 0.00	 0.0	 0.0	 1	     1.0571	     0.0000	 110.0	 1	     1.1500	     0.8500;
	1441	 1	 0.00	 0.00	 0.0	 0.0	 3	     1.0395	     0.0000	 110.0	 1	     1.1500	     0.8500;
	1451	 1	 0.00	 0.00	 0.0	 0.0	 1	     1.0543	     0.0000	 110.0	 1	     1.1500	     0.8500;
	1461	 1	 0.00	 0.00	 0.0	 0.0	 5	     1.0374	     0.0000	 110.0	 1	     1.1500	     0.8500;
	1481	 1	 0.00	 0.00	 0.0	 0.0	 5	     1.0339	     0.0000	 110.0	 1	     1.1500	     0.8500;
	1501	 1	 0.00	 0.00	 0.0	 0.0	 3	     1.0393	     0.0000	 110.0	 1	     1.1500	     0.8500;
	1541	 1	 0.00	 0.00	 0.0	 0.0	 6	     1.0556	     0.0000	 110.0	 1	     1.1500	     0.8500;
	1551	 1	 0.00	 0.00	 0.0	 0.0	 3	     1.0500	     0.0000	 110.0	 1	     1.1500	     0.8500;
	1581	 1	 0.00	 0.00	 0.0	 0.0	 1	     1.0584	     0.0000	 110.0	 1	     1.1500	     0.8500;
	1601	 1	 0.00	 0.00	 0.0	 0.0	 3	     1.0433	     0.0000	 110.0	 1	     1.1500	     0.8500;
	1602	 1	 0.00	 0.00	 0.0	 0.0	 3	     1.0479	     0.0000	 220.0	 1	     1.1500	     0.8500;
	1611	 1	 0.00	 0.00	 0.0	 0.0	 7	     1.0490	     0.0000	 110.0	 1	     1.1500	     0.8500;
	1621	 1	 0.00	 0.00	 0.0	 0.0	 3	     1.0330	     0.0000	 110.0	 1	     1.1500	     0.8500;
	1631	 1	 0.00	 0.00	 0.0	 0.0	 9	     1.0500	     0.0000	 110.0	 1	     1.1500	     0.8500;
	1641	 1	 0.00	 0.00	 0.0	 0.0	 9	     1.0583	     0.0000	 110.0	 1	     1.1500	     0.8500;
	1642	 1	 0.00	 0.00	 0.0	 0.0	 9	     1.0519	     0.0000	 220.0	 1	     1.1500	     0.8500;
	1651	 1	 0.00	 0.00	 0.0	 0.0	 7	     1.0548	     0.0000	 110.0	 1	     1.1500	     0.8500;
	1661	 1	 0.00	 0.00	 0.0	 0.0	 9	     1.0500	     0.0000	 110.0	 1	     1.1500	     0.8500;
	1681	 1	 0.00	 0.00	 0.0	 0.0	 3	     1.0393	     0.0000	 110.0	 1	     1.1500	     0.8500;
	1691	 1	 0.00	 0.00	 0.0	 0.0	 1	     1.0589	     0.0000	 110.0	 1	     1.1500	     0.8500;
	1701	 1	 0.00	 0.00	 0.0	 0.0	 9	     1.0205	     0.0000	 110.0	 1	     1.1500	     0.8500;
	1711	 1	 0.00	 0.00	 0.0	 0.0	 1	     1.0732	     0.0000	 110.0	 1	     1.1500	     0.8500;
	1721	 1	 0.00	 0.00	 0.0	 0.0	 5	     1.0507	     0.0000	 110.0	 1	     1.1500	     0.8500;
	1731	 1	 0.00	 0.00	 0.0	 0.0	 1	     1.0732	     0.0000	 110.0	 1	     1.1500	     0.8500;
	1741	 1	 0.00	 0.00	 0.0	 0.0	 2	     1.0591	     0.0000	 110.0	 1	     1.1500	     0.8500;
	1742	 1	 0.00	 0.00	 0.0	 0.0	 2	     1.0686	     0.0000	 220.0	 1	     1.1500	     0.8500;
	1761	 1	 0.00	 0.00	 0.0	 0.0	 9	     1.0205	     0.0000	 110.0	 1	     1.1500	     0.8500;
	1781	 1	 0.00	 0.00	 0.0	 0.0	 7	     1.0496	     0.0000	 110.0	 1	     1.1500	     0.8500;
	1801	 1	 0.00	 0.00	 0.0	 0.0	 1	     1.0592	     0.0000	 110.0	 1	     1.1500	     0.8500;
	1821	 1	 0.00	 0.00	 0.0	 0.0	 9	     1.0527	     0.0000	 110.0	 1	     1.1500	     0.8500;
	1841	 1	 0.00	 0.00	 0.0	 0.0	 6	     1.0557	     0.0000	 110.0	 1	     1.1500	     0.8500;
	1861	 1	 0.00	 0.00	 0.0	 0.0	 9	     1.0460	     0.0000	 110.0	 1	     1.1500	     0.8500;
	1871	 1	 0.00	 0.00	 0.0	 0.0	 2	     1.0565	     0.0000	 110.0	 1	     1.1500	     0.8500;
	1881	 1	 0.00	 0.00	 0.0	 0.0	 3	     1.0288	     0.0000	 110.0	 1	     1.1500	     0.8500;
	1901	 1	 0.00	 0.00	 0.0	 0.0	 6	     1.0554	     0.0000	 110.0	 1	     1.1500	     0.8500;
	1921	 1	 0.00	 0.00	 0.0	 0.0	 3	     1.0370	     0.0000	 110.0	 1	     1.1500	     0.8500;
	1931	 1	 0.00	 0.00	 0.0	 0.0	 9	     1.0500	     0.0000	 110.0	 1	     1.1500	     0.8500;
	1941	 1	 0.00	 0.00	 0.0	 0.0	 8	     1.0750	     0.0000	 110.0	 1	     1.1500	     0.8500;
	1951	 1	 0.00	 0.00	 0.0	 0.0	 9	     1.0380	     0.0000	 110.0	 1	     1.1500	     0.8500;
	1961	 1	 0.00	 0.00	 0.0	 0.0	 3	     1.0340	     0.0000	 110.0	 1	     1.1500	     0.8500;
	1971	 1	 0.00	 0.00	 0.0	 0.0	 7	     1.0500	     0.0000	 110.0	 1	     1.1500	     0.8500;
	1981	 1	 0.00	 0.00	 0.0	 0.0	 9	     1.0302	     0.0000	 110.0	 1	     1.1500	     0.8500;
	1991	 1	 0.00	 0.00	 0.0	 0.0	 6	     1.0555	     0.0000	 110.0	 1	     1.1500	     0.8500;
	2001	 1	 0.00	 0.00	 0.0	 0.0	 5	     1.0389	     0.0000	 110.0	 1	     1.1500	     0.8500;
	2002	 1	 0.00	 0.00	 0.0	 0.0	 5	     1.0419	     0.0000	 220.0	 1	     1.1500	     0.8500;
	2021	 1	 0.00	 0.00	 0.0	 0.0	 1	     1.0378	     0.0000	 110.0	 1	     1.1500	     0.8500;
	2041	 1	 0.00	 0.00	 0.0	 0.0	 2	     1.0570	     0.0000	 110.0	 1	     1.1500	     0.8500;
	2042	 1	 0.00	 0.00	 0.0	 0.0	 2	     1.0750	     0.0000	 220.0	 1	     1.1500	     0.8500;
	2052	 1	 0.00	 0.00	 0.0	 0.0	 2	     1.0750	     0.0000	 220.0	 1	     1.1500	     0.8500;
	2081	 4	 0.0	 0.0	 0.0	 0.0	 3	     1.0000	     0.0000	 110.0	 1	     1.1500	     0.8500;
	2101	 1	 0.00	 0.00	 0.0	 0.0	 10	     1.0419	     0.0000	 110.0	 1	     1.1500	     0.8500;
	2121	 1	 0.00	 0.00	 0.0	 0.0	 4	     1.0440	     0.0000	 110.0	 1	     1.1500	     0.8500;
	2131	 1	 0.00	 0.00	 0.0	 0.0	 3	     1.0512	     0.0000	 110.0	 1	     1.1500	     0.8500;
	2141	 1	 0.00	 0.00	 0.0	 0.0	 5	     1.0300	     0.0000	 110.0	 1	     1.1500	     0.8500;
	2161	 1	 0.00	 0.00	 0.0	 0.0	 5	     1.0436	     0.0000	 110.0	 1	     1.1500	     0.8500;
	2181	 1	 0.00	 0.00	 0.0	 0.0	 10	     1.0382	     0.0000	 110.0	 1	     1.1500	     0.8500;
	2202	 1	 0.00	 0.00	 0.0	 0.0	 2	     1.0687	     0.0000	 220.0	 1	     1.1500	     0.8500;
	2204	 1	 0.00	 0.00	 0.0	 0.0	 2	     1.0127	     0.0000	 380.0	 1	     1.1500	     0.8500;
	2221	 1	 0.00	 0.00	 0.0	 0.0	 3	     1.0404	     0.0000	 110.0	 1	     1.1500	     0.8500;
	2231	 1	 0.00	 0.00	 0.0	 0.0	 4	     1.0657	     0.0000	 110.0	 1	     1.1500	     0.8500;
	2241	 1	 0.00	 0.00	 0.0	 0.0	 5	     1.0645	     0.0000	 110.0	 1	     1.1500	     0.8500;
	2251	 1	 0.00	 0.00	 0.0	 0.0	 1	     1.0736	     0.0000	 110.0	 1	     1.1500	     0.8500;
	2261	 1	 0.00	 0.00	 0.0	 0.0	 8	     1.0293	     0.0000	 110.0	 1	     1.1500	     0.8500;
	2281	 1	 0.00	 0.00	 0.0	 0.0	 9	     1.0437	     0.0000	 110.0	 1	     1.1500	     0.8500;
	2301	 1	 0.00	 0.00	 0.0	 0.0	 8	     1.0402	     0.0000	 110.0	 1	     1.1500	     0.8500;
	2321	 1	 0.00	 0.00	 0.0	 0.0	 9	     0.9879	     0.0000	 110.0	 1	     1.1500	     0.8500;
	2361	 1	 0.00	 0.00	 0.0	 0.0	 4	     1.0441	     0.0000	 110.0	 1	     1.1500	     0.8500;
	2481	 1	 0.00	 0.00	 0.0	 0.0	 2	     1.0548	     0.0000	 110.0	 1	     1.1500	     0.8500;
	2491	 1	 0.00	 0.00	 0.0	 0.0	 2	     1.0547	     0.0000	 110.0	 1	     1.1500	     0.8500;
	2521	 1	 0.00	 0.00	 0.0	 0.0	 9	     1.0471	     0.0000	 110.0	 1	     1.1500	     0.8500;
	2522	 1	 0.00	 0.00	 0.0	 0.0	 9	     1.0477	     0.0000	 220.0	 1	     1.1500	     0.8500;
	2541	 1	 0.00	 0.00	 0.0	 0.0	 1	     1.0712	     0.0000	 110.0	 1	     1.1500	     0.8500;
	2551	 1	 0.00	 0.00	 0.0	 0.0	 1	     1.0680	     0.0000	 110.0	 1	     1.1500	     0.8500;
	2561	 1	 0.00	 0.00	 0.0	 0.0	 2	     1.0605	     0.0000	 110.0	 1	     1.1500	     0.8500;
	2562	 1	 0.00	 0.00	 0.0	 0.0	 2	     1.0750	     0.0000	 220.0	 1	     1.1500	     0.8500;
	2563	 1	 0.00	 0.00	 0.0	 0.0	 2	     1.0750	     0.0000	 220.0	 1	     1.1500	     0.8500;
	2571	 1	 0.00	 0.00	 0.0	 0.0	 2	     1.0739	     0.0000	 110.0	 1	     1.1500	     0.8500;
	2581	 1	 0.00	 0.00	 0.0	 0.0	 2	     1.0557	     0.0000	 110.0	 1	     1.1500	     0.8500;
	2671	 1	 0.00	 0.00	 0.0	 0.0	 9	     1.0529	     0.0000	 110.0	 1	     1.1500	     0.8500;
	2681	 1	 0.00	 0.00	 0.0	 0.0	 9	     1.0490	     0.0000	 110.0	 1	     1.1500	     0.8500;
	2701	 1	 0.00	 0.00	 0.0	 0.0	 1	     1.0582	     0.0000	 110.0	 1	     1.1500	     0.8500;
	2721	 1	 0.00	 0.00	 0.0	 0.0	 2	     1.0547	     0.0000	 110.0	 1	     1.1500	     0.8500;
	2731	 1	 0.00	 0.00	 0.0	 0.0	 7	     1.0501	     0.0000	 110.0	 1	     1.1500	     0.8500;
	2741	 1	 0.00	 0.00	 0.0	 0.0	 6	     1.0403	     0.0000	 110.0	 1	     1.1500	     0.8500;
	2742	 1	 0.00	 0.00	 0.0	 0.0	 6	     1.0453	     0.0000	 220.0	 1	     1.1500	     0.8500;
	2761	 1	 0.00	 0.00	 0.0	 0.0	 1	     1.0730	     0.0000	 110.0	 1	     1.1500	     0.8500;
	2771	 1	 0.00	 0.00	 0.0	 0.0	 7	     1.0504	     0.0000	 110.0	 1	     1.1500	     0.8500;
	2780	 1	 0.00	 0.00	 0.0	 0.0	 9	     1.0506	     0.0000	 110.0	 1	     1.1500	     0.8500;
	2781	 1	 0.00	 0.00	 0.0	 0.0	 9	     1.0506	     0.0000	 110.0	 1	     1.1500	     0.8500;
	2801	 1	 0.00	 0.00	 0.0	 0.0	 9	     1.0015	     0.0000	 110.0	 1	     1.1500	     0.8500;
	2821	 1	 0.00	 0.00	 0.0	 0.0	 9	     1.0319	     0.0000	 110.0	 1	     1.1500	     0.8500;
	2841	 1	 0.00	 0.00	 0.0	 0.0	 10	     1.0368	     0.0000	 110.0	 1	     1.1500	     0.8500;
	2842	 1	 0.00	 0.00	 0.0	 0.0	 10	     1.0478	     0.0000	 220.0	 1	     1.1500	     0.8500;
	2852	 1	 0.00	 0.00	 0.0	 0.0	 3	     1.0406	     0.0000	 220.0	 1	     1.1500	     0.8500;
	2861	 1	 0.00	 0.00	 0.0	 0.0	 1	     1.0384	     0.0000	 110.0	 1	     1.1500	     0.8500;
	2881	 1	 0.00	 0.00	 0.0	 0.0	 3	     1.0259	     0.0000	 110.0	 1	     1.1500	     0.8500;
	2941	 1	 0.00	 0.00	 0.0	 0.0	 1	     1.0714	     0.0000	 110.0	 1	     1.1500	     0.8500;
	2951	 1	 0.00	 0.00	 0.0	 0.0	 1	     1.0682	     0.0000	 110.0	 1	     1.1500	     0.8500;
	2962	 1	 0.00	 0.00	 0.0	 0.0	 2	     1.0751	     0.0000	 220.0	 1	     1.1500	     0.8500;
	2972	 1	 0.00	 0.00	 0.0	 0.0	 2	     1.0765	     0.0000	 220.0	 1	     1.1500	     0.8500;
	3061	 1	 0.00	 0.00	 0.0	 0.0	 3	     1.0336	     0.0000	 110.0	 1	     1.1500	     0.8500;
	3081	 1	 0.00	 0.00	 0.0	 0.0	 2	     1.0685	     0.0000	 110.0	 1	     1.1500	     0.8500;
	3082	 1	 0.00	 0.00	 0.0	 0.0	 2	     1.0731	     0.0000	 220.0	 1	     1.1500	     0.8500;
	3091	 1	 0.00	 0.00	 0.0	 0.0	 2	     1.0430	     0.0000	 110.0	 1	     1.1500	     0.8500;
	3101	 1	 0.00	 0.00	 0.0	 0.0	 5	     1.0435	     0.0000	 110.0	 1	     1.1500	     0.8500;
	3122	 1	 0.00	 0.00	 0.0	 0.0	 2	     1.0750	     0.0000	 220.0	 1	     1.1500	     0.8500;
	3200	 1	 0.00	 0.00	 0.0	 0.0	 3	     1.0411	     0.0000	 110.0	 1	     1.1500	     0.8500;
	3201	 1	 0.00	 0.00	 0.0	 0.0	 3	     1.0376	     0.0000	 110.0	 1	     1.1500	     0.8500;
	3202	 1	 0.00	 0.00	 0.0	 0.0	 3	     1.0411	     0.0000	 220.0	 1	     1.1500	     0.8500;
	3203	 1	 0.00	 0.00	 0.0	 0.0	 3	     1.0411	     0.0000	 220.0	 1	     1.1500	     0.8500;
	3209	 1	 0.00	 0.00	 0.0	 0.0	 3	     1.0376	     0.0000	 110.0	 1	     1.1500	     0.8500;
	3221	 1	 0.00	 0.00	 0.0	 0.0	 3	     1.0321	     0.0000	 110.0	 1	     1.1500	     0.8500;
	3241	 1	 0.00	 0.00	 0.0	 0.0	 8	     1.0582	     0.0000	 110.0	 1	     1.1500	     0.8500;
	3261	 1	 0.00	 0.00	 0.0	 0.0	 6	     1.0347	     0.0000	 110.0	 1	     1.1500	     0.8500;
	3281	 1	 0.00	 0.00	 0.0	 0.0	 7	     1.0492	     0.0000	 110.0	 1	     1.1500	     0.8500;
	3282	 1	 0.00	 0.00	 0.0	 0.0	 7	     1.0444	     0.0000	 220.0	 1	     1.1500	     0.8500;
	3301	 1	 0.00	 0.00	 0.0	 0.0	 7	     1.0426	     0.0000	 110.0	 1	     1.1500	     0.8500;
	3321	 1	 0.00	 0.00	 0.0	 0.0	 10	     1.0283	     0.0000	 110.0	 1	     1.1500	     0.8500;
	3341	 1	 0.00	 0.00	 0.0	 0.0	 6	     1.0594	     0.0000	 110.0	 1	     1.1500	     0.8500;
	3342	 1	 0.00	 0.00	 0.0	 0.0	 6	     1.0471	     0.0000	 220.0	 1	     1.1500	     0.8500;
	3361	 1	 0.00	 0.00	 0.0	 0.0	 9	     0.9799	     0.0000	 110.0	 1	     1.1500	     0.8500;
	3381	 1	 0.00	 0.00	 0.0	 0.0	 8	     1.0312	     0.0000	 110.0	 1	     1.1500	     0.8500;
	3401	 1	 0.00	 0.00	 0.0	 0.0	 5	     1.0346	     0.0000	 110.0	 1	     1.1500	     0.8500;
	3421	 1	 0.00	 0.00	 0.0	 0.0	 1	     1.0732	     0.0000	 110.0	 1	     1.1500	     0.8500;
	3431	 1	 0.00	 0.00	 0.0	 0.0	 1	     1.0381	     0.0000	 110.0	 1	     1.1500	     0.8500;
	3501	 1	 0.00	 0.00	 0.0	 0.0	 9	     1.0500	     0.0000	 110.0	 1	     1.1500	     0.8500;
	3521	 1	 0.00	 0.00	 0.0	 0.0	 10	     1.0579	     0.0000	 110.0	 1	     1.1500	     0.8500;
	3522	 1	 0.00	 0.00	 0.0	 0.0	 10	     1.0411	     0.0000	 220.0	 1	     1.1500	     0.8500;
	3541	 1	 0.00	 0.00	 0.0	 0.0	 7	     1.0432	     0.0000	 110.0	 1	     1.1500	     0.8500;
	3561	 1	 0.00	 0.00	 0.0	 0.0	 10	     1.0576	     0.0000	 110.0	 1	     1.1500	     0.8500;
	3581	 1	 0.00	 0.00	 0.0	 0.0	 9	     0.9799	     0.0000	 110.0	 1	     1.1500	     0.8500;
	3601	 1	 0.00	 0.00	 0.0	 0.0	 3	     1.0327	     0.0000	 110.0	 1	     1.1500	     0.8500;
	3611	 1	 0.00	 0.00	 0.0	 0.0	 3	     1.0329	     0.0000	 110.0	 1	     1.1500	     0.8500;
	3621	 1	 0.00	 0.00	 0.0	 0.0	 5	     1.0467	     0.0000	 110.0	 1	     1.1500	     0.8500;
	3641	 1	 0.00	 0.00	 0.0	 0.0	 6	     1.0559	     0.0000	 110.0	 1	     1.1500	     0.8500;
	3642	 1	 0.00	 0.00	 0.0	 0.0	 6	     1.0541	     0.0000	 220.0	 1	     1.1500	     0.8500;
	3651	 1	 0.00	 0.00	 0.0	 0.0	 5	     1.0559	     0.0000	 110.0	 1	     1.1500	     0.8500;
	3751	 1	 0.00	 0.00	 0.0	 0.0	 1	     1.0718	     0.0000	 110.0	 1	     1.1500	     0.8500;
	3761	 1	 0.00	 0.00	 0.0	 0.0	 1	     1.0550	     0.0000	 110.0	 1	     1.1500	     0.8500;
	3781	 1	 0.00	 0.00	 0.0	 0.0	 1	     1.0583	     0.0000	 110.0	 1	     1.1500	     0.8500;
	3801	 1	 0.00	 0.00	 0.0	 0.0	 3	     1.0354	     0.0000	 110.0	 1	     1.1500	     0.8500;
	3821	 1	 0.00	 0.00	 0.0	 0.0	 10	     1.0396	     0.0000	 110.0	 1	     1.1500	     0.8500;
	3841	 1	 0.00	 0.00	 0.0	 0.0	 2	     1.0561	     0.0000	 110.0	 1	     1.1500	     0.8500;
	3842	 1	 0.00	 0.00	 0.0	 0.0	 2	     1.0649	     0.0000	 220.0	 1	     1.1500	     0.8500;
	3851	 1	 0.00	 0.00	 0.0	 0.0	 2	     1.0550	     0.0000	 110.0	 1	     1.1500	     0.8500;
	3852	 1	 0.00	 0.00	 0.0	 0.0	 2	     1.0695	     0.0000	 220.0	 1	     1.1500	     0.8500;
	3861	 1	 0.00	 0.00	 0.0	 0.0	 1	     1.0725	     0.0000	 110.0	 1	     1.1500	     0.8500;
	3871	 1	 0.00	 0.00	 0.0	 0.0	 1	     1.0661	     0.0000	 110.0	 1	     1.1500	     0.8500;
	3881	 1	 0.00	 0.00	 0.0	 0.0	 3	     1.0401	     0.0000	 110.0	 1	     1.1500	     0.8500;
	3901	 1	 0.00	 0.00	 0.0	 0.0	 7	     1.0420	     0.0000	 110.0	 1	     1.1500	     0.8500;
	3934	 1	 0.00	 0.00	 0.0	 0.0	 4	     1.0500	     0.0000	 380.0	 1	     1.1500	     0.8500;
	3941	 1	 0.00	 0.00	 0.0	 0.0	 4	     1.0498	     0.0000	 110.0	 1	     1.1500	     0.8500;
	3942	 1	 0.00	 0.00	 0.0	 0.0	 4	     1.0665	     0.0000	 220.0	 1	     1.1500	     0.8500;
	3944	 1	 0.00	 0.00	 0.0	 0.0	 4	     1.0500	     0.0000	 380.0	 1	     1.1500	     0.8500;
	3954	 1	 0.00	 0.00	 0.0	 0.0	 4	     1.0500	     0.0000	 380.0	 1	     1.1500	     0.8500;
	3961	 1	 0.00	 0.00	 0.0	 0.0	 3	     1.0331	     0.0000	 110.0	 1	     1.1500	     0.8500;
	3981	 1	 0.00	 0.00	 0.0	 0.0	 7	     1.0418	     0.0000	 110.0	 1	     1.1500	     0.8500;
	3991	 1	 0.00	 0.00	 0.0	 0.0	 7	     1.0418	     0.0000	 110.0	 1	     1.1500	     0.8500;
	4001	 1	 0.00	 0.00	 0.0	 0.0	 9	     1.0286	     0.0000	 110.0	 1	     1.1500	     0.8500;
	4021	 1	 0.00	 0.00	 0.0	 0.0	 3	     1.0256	     0.0000	 110.0	 1	     1.1500	     0.8500;
	4041	 1	 0.00	 0.00	 0.0	 0.0	 9	     1.0443	     0.0000	 110.0	 1	     1.1500	     0.8500;
	4061	 1	 0.00	 0.00	 0.0	 0.0	 10	     1.0469	     0.0000	 110.0	 1	     1.1500	     0.8500;
	4071	 1	 0.00	 0.00	 0.0	 0.0	 9	     0.9896	     0.0000	 110.0	 1	     1.1500	     0.8500;
	4081	 1	 0.00	 0.00	 0.0	 0.0	 8	     1.0556	     0.0000	 110.0	 1	     1.1500	     0.8500;
	4101	 1	 0.00	 0.00	 0.0	 0.0	 1	     1.0730	     0.0000	 110.0	 1	     1.1500	     0.8500;
...
];

%% generator data
%	bus	Pg	Qg	Qmax	Qmin	Vg	mBase	status	Pmax	Pmin	Pc1	Pc2	Qc1min	Qc1max	Qc2min	Qc2max	ramp_agc	ramp_10	ramp_30	ramp_q	apf
mpc.gen = [
	10271	 21.0	 0.0	 26.0	 -26.0	 1.05	 34.0	 0	 51	 2.5	 0.0	 0.0	 0.0	 0.0	 0.0	 0.0	 0.0	 0.0	 0.0	 0.0	 0.0; % NG
	10272	 22.0	 0.0	 47.0	 -47.0	 1.05	 34.0	 0	 93	 2.5	 0.0	 0.0	 0.0	 0.0	 0.0	 0.0	 0.0	 0.0	 0.0	 0.0	 0.0; % PEL
	10273	 19.0	 0.0	 39.0	 -39.0	 1.05	 34.0	 0	 77	 2.5	 0.0	 0.0	 0.0	 0.0	 0.0	 0.0	 0.0	 0.0	 0.0	 0.0	 0.0; % PEL
	10274	 24.0	 0.0	 47.0	 -47.0	 1.05	 34.0	 0	 93	 2.5	 0.0	 0.0	 0.0	 0.0	 0.0	 0.0	 0.0	 0.0	 0.0	 0.0	 0.0; % PEL
	10275	 4.0	 2.0	 5.0	 -5.0	 1.05	 8.35	 1	 9	 0.0	 0.0	 0.0	 0.0	 0.0	 0.0	 0.0	 0.0	 0.0	 0.0	 0.0	 0.0; % COW
	10276	 2.0	 1.0	 2.0	 -2.0	 1.05	 0.85	 1	 3	 0.0	 0.0	 0.0	 0.0	 0.0	 0.0	 0.0	 0.0	 0.0	 0.0	 0.0	 0.0; % PEL
	10470	 271.0	 3.0	 270.0	 -204.0	 1.04	 500.0	 1	 407	 111.0	 0.0	 0.0	 0.0	 0.0	 0.0	 0.0	 0.0	 0.0	 0.0	 0.0	 0.0; % COW
	10471	 270.0	 0.0	 174.0	 -174.0	 1.075	 318.8	 0	 348	 20.0	 0.0	 0.0	 0.0	 0.0	 0.0	 0.0	 0.0	 0.0	 0.0	 0.0	 0.0; % NG
	10472	 90.0	 0.0	 60.0	 -50.0	 1.075	 100.9	 0	 99	 6.5	 0.0	 0.0	 0.0	 0.0	 0.0	 0.0	 0.0	 0.0	 0.0	 0.0	 0.0; % NG
	10473	 90.0	 0.0	 66.0	 -66.0	 1.075	 100.9	 0	 131	 6.5	 0.0	 0.0	 0.0	 0.0	 0.0	 0.0	 0.0	 0.0	 0.0	 0.0	 0.0; % NG
	10474	 90.0	 0.0	 82.0	 -82.0	 1.075	 100.9	 0	 164	 6.5	 0.0	 0.0	 0.0	 0.0	 0.0	 0.0	 0.0	 0.0	 0.0	 0.0	 0.0; % NG
	10671	 16.0	 1.0	 9.0	 -9.0	 1.04	 4.8	 1	 17	 0.0	 0.0	 0.0	 0.0	 0.0	 0.0	 0.0	 0.0	 0.0	 0.0	 0.0	 0.0; % NG
	10672	 21.0	 -1.0	 18.0	 -18.0	 1.04	 6.0	 1	 36	 0.0	 0.0	 0.0	 0.0	 0.0	 0.0	 0.0	 0.0	 0.0	 0.0	 0.0	 0.0; % PEL
	10673	 4.0	 2.0	 8.0	 -8.0	 1.05	 1.2	 1	 16	 0.0	 0.0	 0.0	 0.0	 0.0	 0.0	 0.0	 0.0	 0.0	 0.0	 0.0	 0.0; % PEL
	10674	 3.0	 -1.0	 2.0	 -2.3	 1.04	 4.6	 1	 3	 0.0	 0.0	 0.0	 0.0	 0.0	 0.0	 0.0	 0.0	 0.0	 0.0	 0.0	 0.0; % PEL
	11204	 1.0	 0.0	 1.0	 -1.0	 1.0	 1.6	 0	 2	 0.0	 0.0	 0.0	 0.0	 0.0	 0.0	 0.0	 0.0	 0.0	 0.0	 0.0	 0.0; % PEL
	11271	 17.0	 -6.0	 13.0	 -13.0	 1.04	 28.0	 1	 25	 0.0	 0.0	 0.0	 0.0	 0.0	 0.0	 0.0	 0.0	 0.0	 0.0	 0.0	 0.0; % PEL
	12371	 20.0	 -2.0	 29.0	 -29.0	 1.05	 32.0	 1	 58	 0.0	 0.0	 0.0	 0.0	 0.0	 0.0	 0.0	 0.0	 0.0	 0.0	 0.0	 0.0; % PEL
	12372	 15.0	 -8.0	 26.0	 -26.0	 1.05	 10.0	 1	 52	 0.0	 0.0	 0.0	 0.0	 0.0	 0.0	 0.0	 0.0	 0.0	 0.0	 0.0	 0.0; % NG
	12571	 5.0	 -14.0	 16.8	 -16.8	 1.05	 25.05	 1	 8	 0.0	 0.0	 0.0	 0.0	 0.0	 0.0	 0.0	 0.0	 0.0	 0.0	 0.0	 0.0; % NG
	12572	 4.0	 3.0	 3.6	 -3.6	 1.05	 3.34	 1	 6	 0.0	 0.0	 0.0	 0.0	 0.0	 0.0	 0.0	 0.0	 0.0	 0.0	 0.0	 0.0; % PEL
	12573	 5.0	 1.0	 12.0	 -12.0	 1.05	 10.02	 1	 23	 0.0	 0.0	 0.0	 0.0	 0.0	 0.0	 0.0	 0.0	 0.0	 0.0	 0.0	 0.0; % NG
	12872	 4.0	 1.0	 5.0	 -5.0	 1.05	 9.2	 1	 9	 0.0	 0.0	 0.0	 0.0	 0.0	 0.0	 0.0	 0.0	 0.0	 0.0	 0.0	 0.0; % PEL
	12873	 7.0	 1.0	 5.0	 -5.0	 1.05	 20.7	 1	 9	 0.0	 0.0	 0.0	 0.0	 0.0	 0.0	 0.0	 0.0	 0.0	 0.0	 0.0	 0.0; % NG
	12874	 4.0	 1.0	 2.0	 -2.0	 1.05	 8.5	 1	 4	 0.0	 0.0	 0.0	 0.0	 0.0	 0.0	 0.0	 0.0	 0.0	 0.0	 0.0	 0.0; % NG
	13434	 4.3	 0.0	 5.0	 -5.0	 1.0	 4.5	 0	 9	 0.0	 0.0	 0.0	 0.0	 0.0	 0.0	 0.0	 0.0	 0.0	 0.0	 0.0	 0.0; % NG
	13471	 2.0	 1.0	 4.0	 -4.0	 1.05	 0.66	 1	 7	 0.0	 0.0	 0.0	 0.0	 0.0	 0.0	 0.0	 0.0	 0.0	 0.0	 0.0	 0.0; % NG
	13472	 8.0	 1.0	 20.0	 -20.0	 1.05	 2.7	 1	 39	 0.0	 0.0	 0.0	 0.0	 0.0	 0.0	 0.0	 0.0	 0.0	 0.0	 0.0	 0.0; % COW
	13473	 8.0	 1.0	 7.0	 -7.0	 1.05	 10.0	 1	 13	 0.0	 0.0	 0.0	 0.0	 0.0	 0.0	 0.0	 0.0	 0.0	 0.0	 0.0	 0.0; % NG
	13475	 6.0	 1.0	 7.0	 -7.0	 1.05	 7.65	 1	 14	 0.0	 0.0	 0.0	 0.0	 0.0	 0.0	 0.0	 0.0	 0.0	 0.0	 0.0	 0.0; % NG
	13476	 7.0	 -1.0	 14.0	 -14.0	 1.05	 11.5	 1	 27	 0.0	 0.0	 0.0	 0.0	 0.0	 0.0	 0.0	 0.0	 0.0	 0.0	 0.0	 0.0; % NG
	13477	 3.0	 1.0	 2.0	 -2.0	 1.05	 2.7	 1	 3	 0.0	 0.0	 0.0	 0.0	 0.0	 0.0	 0.0	 0.0	 0.0	 0.0	 0.0	 0.0; % PEL
	13479	 3.0	 1.0	 5.0	 -5.0	 1.0	 3.4	 1	 9	 0.0	 0.0	 0.0	 0.0	 0.0	 0.0	 0.0	 0.0	 0.0	 0.0	 0.0	 0.0; % PEL
	14073	 1.0	 -5.0	 6.0	 -6.0	 1.04	 7.611	 1	 1	 0.0	 0.0	 0.0	 0.0	 0.0	 0.0	 0.0	 0.0	 0.0	 0.0	 0.0	 0.0; % NG
	14471	 2.0	 1.0	 5.0	 -5.0	 1.04	 4.0	 1	 9	 0.0	 0.0	 0.0	 0.0	 0.0	 0.0	 0.0	 0.0	 0.0	 0.0	 0.0	 0.0; % PEL
	14472	 2.0	 1.0	 2.0	 -2.0	 1.0	 0.85	 1	 4	 0.0	 0.0	 0.0	 0.0	 0.0	 0.0	 0.0	 0.0	 0.0	 0.0	 0.0	 0.0; % NG
	14604	 4.8	 0.0	 7.0	 -7.0	 1.05	 7.0	 0	 13	 0.0	 0.0	 0.0	 0.0	 0.0	 0.0	 0.0	 0.0	 0.0	 0.0	 0.0	 0.0; % NG
	14871	 3.0	 1.0	 5.0	 -5.0	 1.05	 4.6	 1	 10	 0.0	 0.0	 0.0	 0.0	 0.0	 0.0	 0.0	 0.0	 0.0	 0.0	 0.0	 0.0; % PEL
	15573	 9.0	 -1.0	 14.0	 -14.0	 1.04	 23.0	 1	 27	 0.0	 0.0	 0.0	 0.0	 0.0	 0.0	 0.0	 0.0	 0.0	 0.0	 0.0	 0.0; % COW
	15771	 6.0	 1.0	 8.0	 -8.0	 1.04	 1.98	 1	 15	 0.0	 0.0	 0.0	 0.0	 0.0	 0.0	 0.0	 0.0	 0.0	 0.0	 0.0	 0.0; % PEL
	15772	 8.0	 -1.0	 10.0	 -10.0	 1.04	 3.0	 1	 19	 0.0	 0.0	 0.0	 0.0	 0.0	 0.0	 0.0	 0.0	 0.0	 0.0	 0.0	 0.0; % PEL
	16371	 6.0	 -1.0	 6.0	 -6.0	 1.0	 3.4	 1	 12	 0.0	 0.0	 0.0	 0.0	 0.0	 0.0	 0.0	 0.0	 0.0	 0.0	 0.0	 0.0; % PEL
	16372	 6.0	 -1.0	 12.0	 -12.0	 1.0	 3.4	 1	 23	 0.0	 0.0	 0.0	 0.0	 0.0	 0.0	 0.0	 0.0	 0.0	 0.0	 0.0	 0.0; % NG
	16373	 7.0	 -4.0	 11.0	 -11.0	 1.0	 6.8	 1	 21	 0.0	 0.0	 0.0	 0.0	 0.0	 0.0	 0.0	 0.0	 0.0	 0.0	 0.0	 0.0; % NG
	16374	 5.0	 -1.0	 3.0	 -3.0	 1.0	 7.65	 1	 6	 0.0	 0.0	 0.0	 0.0	 0.0	 0.0	 0.0	 0.0	 0.0	 0.0	 0.0	 0.0; % NG
	16375	 5.0	 2.0	 10.0	 -10.0	 1.0	 4.25	 1	 20	 0.0	 0.0	 0.0	 0.0	 0.0	 0.0	 0.0	 0.0	 0.0	 0.0	 0.0	 0.0; % NG
	16376	 6.0	 -1.0	 11.0	 -11.0	 1.0	 5.1	 1	 21	 0.0	 0.0	 0.0	 0.0	 0.0	 0.0	 0.0	 0.0	 0.0	 0.0	 0.0	 0.0; % PEL
	16377	 5.0	 -3.0	 4.0	 -4.0	 1.0	 9.2	 1	 7	 0.0	 0.0	 0.0	 0.0	 0.0	 0.0	 0.0	 0.0	 0.0	 0.0	 0.0	 0.0; % COW
	16379	 1.0	 1.0	 1.2	 -1.2	 1.0	 0.323	 1	 1	 0.0	 0.0	 0.0	 0.0	 0.0	 0.0	 0.0	 0.0	 0.0	 0.0	 0.0	 0.0; % NG
	16571	 11.0	 -14.0	 23.0	 -23.0	 1.05	 40.0	 1	 46	 0.0	 0.0	 0.0	 0.0	 0.0	 0.0	 0.0	 0.0	 0.0	 0.0	 0.0	 0.0; % PEL
	16670	 1.0	 -1.0	 2.0	 -3.07	 1.0	 4.5	 1	 4	 0.0	 0.0	 0.0	 0.0	 0.0	 0.0	 0.0	 0.0	 0.0	 0.0	 0.0	 0.0; % NG
	16671	 1.0	 -1.0	 1.2	 -1.2	 1.04	 3.4	 1	 2	 0.0	 0.0	 0.0	 0.0	 0.0	 0.0	 0.0	 0.0	 0.0	 0.0	 0.0	 0.0; % PEL
	16672	 1.0	 1.0	 1.2	 -1.2	 1.04	 1.7	 1	 1	 0.0	 0.0	 0.0	 0.0	 0.0	 0.0	 0.0	 0.0	 0.0	 0.0	 0.0	 0.0; % NG
	16674	 1.0	 -5.0	 6.0	 -6.0	 1.04	 18.7	 1	 4	 0.0	 0.0	 0.0	 0.0	 0.0	 0.0	 0.0	 0.0	 0.0	 0.0	 0.0	 0.0; % PEL
	16675	 1.0	 -3.0	 3.6	 -3.6	 1.04	 8.0	 1	 2	 0.0	 0.0	 0.0	 0.0	 0.0	 0.0	 0.0	 0.0	 0.0	 0.0	 0.0	 0.0; % NG
	16873	 8.0	 0.0	 10.0	 -10.0	 1.05	 11.5	 0	 20	 1.0	 0.0	 0.0	 0.0	 0.0	 0.0	 0.0	 0.0	 0.0	 0.0	 0.0	 0.0; % NG
	17073	 22.5	 0.0	 30.0	 -30.0	 1.05	 30.0	 0	 60	 2.5	 0.0	 0.0	 0.0	 0.0	 0.0	 0.0	 0.0	 0.0	 0.0	 0.0	 0.0; % PEL
	17074	 22.5	 0.0	 39.0	 -39.0	 1.05	 35.5	 0	 77	 2.5	 0.0	 0.0	 0.0	 0.0	 0.0	 0.0	 0.0	 0.0	 0.0	 0.0	 0.0; % NG
	17075	 2.0	 1.0	 3.0	 -3.0	 1.0	 1.98	 1	 6	 0.0	 0.0	 0.0	 0.0	 0.0	 0.0	 0.0	 0.0	 0.0	 0.0	 0.0	 0.0; % PEL
	17077	 2.0	 1.0	 1.2	 -1.2	 1.0	 1.2	 1	 2	 0.0	 0.0	 0.0	 0.0	 0.0	 0.0	 0.0	 0.0	 0.0	 0.0	 0.0	 0.0; % PEL
	17671	 10.0	 0.0	 7.0	 -7.0	 1.05	 12.5	 0	 14	 1.5	 0.0	 0.0	 0.0	 0.0	 0.0	 0.0	 0.0	 0.0	 0.0	 0.0	 0.0; % NG
	17672	 10.0	 0.0	 7.0	 -7.0	 1.05	 12.5	 0	 14	 1.5	 0.0	 0.0	 0.0	 0.0	 0.0	 0.0	 0.0	 0.0	 0.0	 0.0	 0.0; % NG
	18471	 14.0	 2.0	 22.0	 -22.0	 1.04	 5.2	 1	 44	 0.0	 0.0	 0.0	 0.0	 0.0	 0.0	 0.0	 0.0	 0.0	 0.0	 0.0	 0.0; % NG
	19081	 2.0	 -1.0	 4.0	 -4.0	 1.04	 2.55	 1	 7	 0.0	 0.0	 0.0	 0.0	 0.0	 0.0	 0.0	 0.0	 0.0	 0.0	 0.0	 0.0; % PEL
	19082	 2.0	 -1.0	 4.0	 -4.0	 1.05	 1.7	 1	 8	 0.0	 0.0	 0.0	 0.0	 0.0	 0.0	 0.0	 0.0	 0.0	 0.0	 0.0	 0.0; % NG
	19083	 2.0	 -1.0	 4.0	 -4.0	 1.04	 6.9	 1	 8	 0.0	 0.0	 0.0	 0.0	 0.0	 0.0	 0.0	 0.0	 0.0	 0.0	 0.0	 0.0; % PEL
	19084	 2.0	 -1.0	 5.0	 -5.0	 1.04	 4.6	 1	 9	 0.0	 0.0	 0.0	 0.0	 0.0	 0.0	 0.0	 0.0	 0.0	 0.0	 0.0	 0.0; % NG
	19085	 36.0	 4.0	 33.0	 -33.0	 1.04	 23.824	 1	 65	 0.0	 0.0	 0.0	 0.0	 0.0	 0.0	 0.0	 0.0	 0.0	 0.0	 0.0	 0.0; % PEL
	19317	 0.0	 1.0	 6.0	 -6.0	 1.05	 6.0	 1	 0	 0.0	 0.0	 0.0	 0.0	 0.0	 0.0	 0.0	 0.0	 0.0	 0.0	 0.0	 0.0; % SYNC
	19371	 11.0	 -6.0	 13.0	 -13.0	 1.05	 29.78	 1	 26	 0.0	 0.0	 0.0	 0.0	 0.0	 0.0	 0.0	 0.0	 0.0	 0.0	 0.0	 0.0; % NG
	19372	 11.0	 -4.0	 14.0	 -14.0	 1.05	 11.05	 1	 27	 0.0	 0.0	 0.0	 0.0	 0.0	 0.0	 0.0	 0.0	 0.0	 0.0	 0.0	 0.0; % NG
	19471	 101.0	 89.0	 178.0	 -178.0	 1.075	 153.0	 1	 355	 30.0	 0.0	 0.0	 0.0	 0.0	 0.0	 0.0	 0.0	 0.0	 0.0	 0.0	 0.0; % COW
	19472	 58.274	 0.0	 99.0	 -99.0	 1.075	 66.625	 0	 198	 9.85	 0.0	 0.0	 0.0	 0.0	 0.0	 0.0	 0.0	 0.0	 0.0	 0.0	 0.0; % NG
	19473	 58.274	 0.0	 87.0	 -87.0	 1.075	 66.625	 0	 173	 9.85	 0.0	 0.0	 0.0	 0.0	 0.0	 0.0	 0.0	 0.0	 0.0	 0.0	 0.0; % PEL
	19601	 51.0	 4.0	 31.0	 -31.0	 1.0	 6.5	 1	 61	 0.0	 0.0	 0.0	 0.0	 0.0	 0.0	 0.0	 0.0	 0.0	 0.0	 0.0	 0.0; % PEL
	19771	 16.0	 -7.0	 14.0	 -14.0	 1.05	 46.875	 1	 27	 0.0	 0.0	 0.0	 0.0	 0.0	 0.0	 0.0	 0.0	 0.0	 0.0	 0.0	 0.0; % NG
	19772	 12.0	 1.0	 22.0	 -22.0	 1.05	 8.5	 1	 43	 0.0	 0.0	 0.0	 0.0	 0.0	 0.0	 0.0	 0.0	 0.0	 0.0	 0.0	 0.0; % NG
	19773	 14.0	 -9.0	 27.0	 -27.0	 1.05	 38.714	 1	 53	 0.0	 0.0	 0.0	 0.0	 0.0	 0.0	 0.0	 0.0	 0.0	 0.0	 0.0	 0.0; % NG
	19971	 10.0	 -1.0	 18.0	 -18.0	 1.05	 20.7	 1	 35	 0.0	 0.0	 0.0	 0.0	 0.0	 0.0	 0.0	 0.0	 0.0	 0.0	 0.0	 0.0; % NG
	19972	 6.0	 -3.0	 12.0	 -12.0	 1.05	 2.3	 1	 23	 0.0	 0.0	 0.0	 0.0	 0.0	 0.0	 0.0	 0.0	 0.0	 0.0	 0.0	 0.0; % NG
	19973	 6.0	 -3.0	 4.0	 -4.0	 1.05	 2.3	 1	 8	 0.0	 0.0	 0.0	 0.0	 0.0	 0.0	 0.0	 0.0	 0.0	 0.0	 0.0	 0.0; % PEL
	19974	 30.0	 -6.0	 17.0	 -17.0	 1.05	 16.1	 1	 33	 0.0	 0.0	 0.0	 0.0	 0.0	 0.0	 0.0	 0.0	 0.0	 0.0	 0.0	 0.0; % NG
	21071	 3.0	 -1.0	 7.0	 -7.0	 1.05	 0.85	 1	 13	 0.0	 0.0	 0.0	 0.0	 0.0	 0.0	 0.0	 0.0	 0.0	 0.0	 0.0	 0.0; % PEL
	21371	 17.0	 -22.0	 39.0	 -39.0	 1.05	 31.73	 1	 78	 0.0	 0.0	 0.0	 0.0	 0.0	 0.0	 0.0	 0.0	 0.0	 0.0	 0.0	 0.0; % NG
	21871	 1.0	 -1.0	 1.2	 -1.2	 1.01	 1.7	 1	 2	 0.0	 0.0	 0.0	 0.0	 0.0	 0.0	 0.0	 0.0	 0.0	 0.0	 0.0	 0.0; % NG
	21872	 2.0	 -1.0	 3.0	 -3.0	 1.01	 2.7	 1	 6	 0.0	 0.0	 0.0	 0.0	 0.0	 0.0	 0.0	 0.0	 0.0	 0.0	 0.0	 0.0; % PEL
	22273	 3.0	 -1.0	 7.0	 -7.0	 1.0	 4.0	 1	 13	 0.0	 0.0	 0.0	 0.0	 0.0	 0.0	 0.0	 0.0	 0.0	 0.0	 0.0	 0.0; % NG
	22274	 7.0	 -2.0	 5.0	 -5.0	 1.0	 5.94	 1	 10	 0.0	 0.0	 0.0	 0.0	 0.0	 0.0	 0.0	 0.0	 0.0	 0.0	 0.0	 0.0; % NG
	22275	 2.0	 -2.0	 3.0	 -3.0	 1.0	 4.25	 1	 5	 0.0	 0.0	 0.0	 0.0	 0.0	 0.0	 0.0	 0.0	 0.0	 0.0	 0.0	 0.0; % NG
	22276	 3.0	 1.0	 4.0	 -4.0	 1.0	 6.68	 1	 7	 0.0	 0.0	 0.0	 0.0	 0.0	 0.0	 0.0	 0.0	 0.0	 0.0	 0.0	 0.0; % NG
	22278	 7.0	 -1.0	 7.0	 -7.0	 1.0	 4.62	 1	 14	 0.0	 0.0	 0.0	 0.0	 0.0	 0.0	 0.0	 0.0	 0.0	 0.0	 0.0	 0.0; % PEL
	22292	 6.0	 0.0	 9.0	 -9.0	 1.0	 6.0	 0	 18	 0.0	 0.0	 0.0	 0.0	 0.0	 0.0	 0.0	 0.0	 0.0	 0.0	 0.0	 0.0; % NG
	22371	 16.0	 -19.0	 22.8	 -22.8	 1.05	 59.5	 1	 26	 0.0	 0.0	 0.0	 0.0	 0.0	 0.0	 0.0	 0.0	 0.0	 0.0	 0.0	 0.0; % NG
	22471	 3.0	 1.0	 6.0	 -6.0	 1.04	 2.55	 1	 11	 0.0	 0.0	 0.0	 0.0	 0.0	 0.0	 0.0	 0.0	 0.0	 0.0	 0.0	 0.0; % PEL
	22472	 3.0	 1.0	 5.0	 -5.0	 1.04	 4.25	 1	 9	 0.0	 0.0	 0.0	 0.0	 0.0	 0.0	 0.0	 0.0	 0.0	 0.0	 0.0	 0.0; % NG
	22671	 52.1	 0.0	 43.0	 -43.0	 1.05	 62.0	 0	 85	 0.6	 0.0	 0.0	 0.0	 0.0	 0.0	 0.0	 0.0	 0.0	 0.0	 0.0	 0.0; % PEL
	22672	 52.1	 0.0	 32.6	 -28.0	 1.05	 62.0	 0	 55	 0.6	 0.0	 0.0	 0.0	 0.0	 0.0	 0.0	 0.0	 0.0	 0.0	 0.0	 0.0; % NG
	22871	 1.0	 -2.0	 2.4	 -2.4	 1.01	 2.4	 1	 4	 0.0	 0.0	 0.0	 0.0	 0.0	 0.0	 0.0	 0.0	 0.0	 0.0	 0.0	 0.0; % PEL
	26771	 11.0	 -7.0	 23.0	 -23.0	 1.05	 26.0	 1	 45	 0.0	 0.0	 0.0	 0.0	 0.0	 0.0	 0.0	 0.0	 0.0	 0.0	 0.0	 0.0; % PEL
	26772	 15.0	 3.0	 34.0	 -34.0	 1.075	 6.0	 1	 68	 3.0	 0.0	 0.0	 0.0	 0.0	 0.0	 0.0	 0.0	 0.0	 0.0	 0.0	 0.0; % NG
	26773	 31.0	 -7.0	 23.0	 -23.0	 1.05	 22.0	 1	 45	 0.0	 0.0	 0.0	 0.0	 0.0	 0.0	 0.0	 0.0	 0.0	 0.0	 0.0	 0.0; % PEL
	26774	 14.0	 3.0	 29.0	 -29.0	 1.075	 6.0	 1	 58	 3.0	 0.0	 0.0	 0.0	 0.0	 0.0	 0.0	 0.0	 0.0	 0.0	 0.0	 0.0; % NG
	27071	 1.0	 -1.0	 2.0	 -2.0	 1.0	 0.8	 1	 4	 0.0	 0.0	 0.0	 0.0	 0.0	 0.0	 0.0	 0.0	 0.0	 0.0	 0.0	 0.0; % PEL
	27204	 4.0	 0.0	 4.0	 -4.0	 1.04	 5.0	 0	 8	 0.0	 0.0	 0.0	 0.0	 0.0	 0.0	 0.0	 0.0	 0.0	 0.0	 0.0	 0.0; % NG
	27361	 0.0	 0.0	 12.3	 -12.3	 1.05	 12.3	 0	 0	 0.0	 0.0	 0.0	 0.0	 0.0	 0.0	 0.0	 0.0	 0.0	 0.0	 0.0	 0.0; % SYNC
	27371	 8.0	 3.0	 11.0	 -11.0	 1.05	 14.45	 1	 22	 0.0	 0.0	 0.0	 0.0	 0.0	 0.0	 0.0	 0.0	 0.0	 0.0	 0.0	 0.0; % PEL
	27372	 8.0	 3.0	 17.0	 -17.0	 1.05	 18.75	 1	 33	 0.0	 0.0	 0.0	 0.0	 0.0	 0.0	 0.0	 0.0	 0.0	 0.0	 0.0	 0.0; % NG
	27471	 57.0	 0.0	 42.0	 -40.0	 1.075	 75.0	 0	 79	 12.5	 0.0	 0.0	 0.0	 0.0	 0.0	 0.0	 0.0	 0.0	 0.0	 0.0	 0.0; % NG
	27472	 51.8	 0.0	 70.0	 -70.0	 1.075	 75.0	 0	 139	 12.5	 0.0	 0.0	 0.0	 0.0	 0.0	 0.0	 0.0	 0.0	 0.0	 0.0	 0.0; % NG
	27473	 121.0	 0.0	 138.0	 -138.0	 1.075	 150.0	 0	 275	 15.0	 0.0	 0.0	 0.0	 0.0	 0.0	 0.0	 0.0	 0.0	 0.0	 0.0	 0.0; % COW
	27771	 18.0	 -19.0	 38.0	 -38.0	 1.05	 41.4	 1	 76	 0.0	 0.0	 0.0	 0.0	 0.0	 0.0	 0.0	 0.0	 0.0	 0.0	 0.0	 0.0; % NG
	27772	 4.0	 -2.0	 10.0	 -10.0	 1.0	 11.912	 1	 19	 0.0	 0.0	 0.0	 0.0	 0.0	 0.0	 0.0	 0.0	 0.0	 0.0	 0.0	 0.0; % PEL
	27773	 4.0	 -1.0	 6.0	 -6.0	 1.0	 4.6	 1	 11	 0.0	 0.0	 0.0	 0.0	 0.0	 0.0	 0.0	 0.0	 0.0	 0.0	 0.0	 0.0; % NG
	27774	 16.0	 -1.0	 21.0	 -21.0	 1.05	 18.4	 1	 42	 0.0	 0.0	 0.0	 0.0	 0.0	 0.0	 0.0	 0.0	 0.0	 0.0	 0.0	 0.0; % PEL
	27871	 2.0	 -2.0	 2.4	 -2.4	 1.04	 3.3	 1	 3	 0.0	 0.0	 0.0	 0.0	 0.0	 0.0	 0.0	 0.0	 0.0	 0.0	 0.0	 0.0; % PEL
	28071	 9.0	 -6.0	 21.0	 -21.0	 1.05	 15.0	 1	 42	 0.0	 0.0	 0.0	 0.0	 0.0	 0.0	 0.0	 0.0	 0.0	 0.0	 0.0	 0.0; % NG
	28271	 3.0	 -1.0	 7.0	 -7.0	 1.04	 3.34	 1	 13	 0.0	 0.0	 0.0	 0.0	 0.0	 0.0	 0.0	 0.0	 0.0	 0.0	 0.0	 0.0; % NG
	28571	 180.0	 -43.0	 282.1	 -190.0	 1.04	 535.5	 1	 318	 55.05	 0.0	 0.0	 0.0	 0.0	 0.0	 0.0	 0.0	 0.0	 0.0	 0.0	 0.0; % NG
	28872	 11.0	 -4.0	 7.0	 -7.0	 1.0	 13.8	 1	 14	 0.0	 0.0	 0.0	 0.0	 0.0	 0.0	 0.0	 0.0	 0.0	 0.0	 0.0	 0.0; % NG
	28873	 11.0	 -6.0	 17.0	 -17.0	 1.0	 18.4	 1	 34	 0.0	 0.0	 0.0	 0.0	 0.0	 0.0	 0.0	 0.0	 0.0	 0.0	 0.0	 0.0; % PEL
	28874	 22.0	 3.0	 21.0	 -21.0	 1.0	 27.6	 1	 42	 0.0	 0.0	 0.0	 0.0	 0.0	 0.0	 0.0	 0.0	 0.0	 0.0	 0.0	 0.0; % PEL
	29671	 81.0	 -17.0	 108.0	 -108.0	 1.075	 150.0	 1	 216	 20.0	 0.0	 0.0	 0.0	 0.0	 0.0	 0.0	 0.0	 0.0	 0.0	 0.0	 0.0; % NG
	29672	 243.0	 -55.0	 181.0	 -127.0	 1.075	 288.0	 1	 254	 69.0	 0.0	 0.0	 0.0	 0.0	 0.0	 0.0	 0.0	 0.0	 0.0	 0.0	 0.0; % NG
	29673	 365.0	 255.0	 255.0	 -306.0	 1.075	 473.0	 1	 487	 97.0	 0.0	 0.0	 0.0	 0.0	 0.0	 0.0	 0.0	 0.0	 0.0	 0.0	 0.0; % NG
	30671	 15.0	 0.0	 19.0	 -19.0	 1.05	 21.4	 0	 37	 2.0	 0.0	 0.0	 0.0	 0.0	 0.0	 0.0	 0.0	 0.0	 0.0	 0.0	 0.0; % NG
	30671	 4.0	 0.0	 4.0	 -4.0	 1.05	 5.7	 0	 7	 0.5	 0.0	 0.0	 0.0	 0.0	 0.0	 0.0	 0.0	 0.0	 0.0	 0.0	 0.0; % PEL
	31071	 7.0	 3.0	 5.0	 -5.0	 1.01	 2.55	 1	 10	 0.0	 0.0	 0.0	 0.0	 0.0	 0.0	 0.0	 0.0	 0.0	 0.0	 0.0	 0.0; % PEL
	31074	 7.0	 3.0	 17.0	 -17.0	 1.04	 2.55	 1	 34	 0.0	 0.0	 0.0	 0.0	 0.0	 0.0	 0.0	 0.0	 0.0	 0.0	 0.0	 0.0; % PEL
	31271	 491.0	 528.0	 633.6	 -633.6	 1.075	 500.0	 1	 650	 81.5	 0.0	 0.0	 0.0	 0.0	 0.0	 0.0	 0.0	 0.0	 0.0	 0.0	 0.0; % NG
	32404	 4.26	 0.0	 8.0	 -8.0	 1.04	 4.8	 0	 15	 0.0	 0.0	 0.0	 0.0	 0.0	 0.0	 0.0	 0.0	 0.0	 0.0	 0.0	 0.0; % NG
	32576	 8.0	 -3.0	 6.0	 -6.0	 1.0	 11.2	 1	 11	 0.0	 0.0	 0.0	 0.0	 0.0	 0.0	 0.0	 0.0	 0.0	 0.0	 0.0	 0.0; % NG
	32577	 6.0	 1.0	 6.0	 -6.0	 1.0	 3.6	 1	 11	 0.0	 0.0	 0.0	 0.0	 0.0	 0.0	 0.0	 0.0	 0.0	 0.0	 0.0	 0.0; % PEL
	32578	 1.25	 0.0	 1.0	 -1.0	 1.0	 1.25	 0	 2	 0.0	 0.0	 0.0	 0.0	 0.0	 0.0	 0.0	 0.0	 0.0	 0.0	 0.0	 0.0; % PEL
	32604	 7.5	 0.0	 13.0	 -13.0	 1.05	 8.5	 0	 26	 1.0	 0.0	 0.0	 0.0	 0.0	 0.0	 0.0	 0.0	 0.0	 0.0	 0.0	 0.0; % PEL
	32604	 0.18	 0.0	 0.0	 0.0	 1.05	 0.2	 0	 0	 0.0	 0.0	 0.0	 0.0	 0.0	 0.0	 0.0	 0.0	 0.0	 0.0	 0.0	 0.0; % PEL
	33071	 7.0	 3.0	 7.0	 -7.0	 1.0	 4.0	 1	 13	 0.0	 0.0	 0.0	 0.0	 0.0	 0.0	 0.0	 0.0	 0.0	 0.0	 0.0	 0.0; % PEL
	33072	 4.0	 2.0	 5.0	 -5.0	 1.0	 9.35	 1	 9	 0.0	 0.0	 0.0	 0.0	 0.0	 0.0	 0.0	 0.0	 0.0	 0.0	 0.0	 0.0; % NG
	35071	 13.0	 1.0	 18.0	 -18.0	 1.01	 4.6	 1	 35	 0.0	 0.0	 0.0	 0.0	 0.0	 0.0	 0.0	 0.0	 0.0	 0.0	 0.0	 0.0; % NG
	35074	 337.0	 14.0	 290.0	 -290.0	 1.05	 121.1	 1	 580	 35.0	 0.0	 0.0	 0.0	 0.0	 0.0	 0.0	 0.0	 0.0	 0.0	 0.0	 0.0; % COW
	35871	 7.0	 2.0	 15.0	 -15.0	 1.04	 2.55	 1	 30	 0.0	 0.0	 0.0	 0.0	 0.0	 0.0	 0.0	 0.0	 0.0	 0.0	 0.0	 0.0; % PEL
	35872	 7.0	 2.0	 16.0	 -16.0	 1.04	 2.55	 1	 32	 0.0	 0.0	 0.0	 0.0	 0.0	 0.0	 0.0	 0.0	 0.0	 0.0	 0.0	 0.0; % PEL
	35873	 7.0	 2.0	 6.0	 -6.0	 1.04	 3.2	 1	 12	 0.0	 0.0	 0.0	 0.0	 0.0	 0.0	 0.0	 0.0	 0.0	 0.0	 0.0	 0.0; % PEL
	35875	 16.0	 -3.0	 16.0	 -16.0	 1.04	 17.7	 1	 31	 0.0	 0.0	 0.0	 0.0	 0.0	 0.0	 0.0	 0.0	 0.0	 0.0	 0.0	 0.0; % NG
	35876	 8.0	 -2.0	 16.0	 -16.0	 1.04	 11.88	 1	 32	 0.0	 0.0	 0.0	 0.0	 0.0	 0.0	 0.0	 0.0	 0.0	 0.0	 0.0	 0.0; % NG
	35877	 3.0	 1.0	 3.0	 -3.0	 1.04	 5.4	 1	 6	 0.0	 0.0	 0.0	 0.0	 0.0	 0.0	 0.0	 0.0	 0.0	 0.0	 0.0	 0.0; % PEL
	36271	 36.0	 19.0	 74.0	 -74.0	 1.05	 36.0	 1	 148	 0.0	 0.0	 0.0	 0.0	 0.0	 0.0	 0.0	 0.0	 0.0	 0.0	 0.0	 0.0; % PEL
	36272	 27.0	 7.0	 14.0	 -75.0	 1.05	 20.0	 1	 28	 0.0	 0.0	 0.0	 0.0	 0.0	 0.0	 0.0	 0.0	 0.0	 0.0	 0.0	 0.0; % PEL
	36471	 9.0	 1.0	 7.0	 -7.0	 1.05	 15.0	 1	 14	 0.0	 0.0	 0.0	 0.0	 0.0	 0.0	 0.0	 0.0	 0.0	 0.0	 0.0	 0.0; % PEL
	36472	 4.0	 -1.0	 9.0	 -9.0	 1.04	 4.6	 1	 18	 0.0	 0.0	 0.0	 0.0	 0.0	 0.0	 0.0	 0.0	 0.0	 0.0	 0.0	 0.0; % NG
	36473	 4.0	 -1.0	 6.0	 -6.0	 1.0	 4.6	 1	 12	 0.0	 0.0	 0.0	 0.0	 0.0	 0.0	 0.0	 0.0	 0.0	 0.0	 0.0	 0.0; % NG
	36474	 5.0	 -1.0	 10.0	 -10.0	 1.04	 4.0	 1	 20	 0.0	 0.0	 0.0	 0.0	 0.0	 0.0	 0.0	 0.0	 0.0	 0.0	 0.0	 0.0; % NG
	36475	 5.0	 -1.0	 9.0	 -9.0	 1.04	 4.6	 1	 17	 0.0	 0.0	 0.0	 0.0	 0.0	 0.0	 0.0	 0.0	 0.0	 0.0	 0.0	 0.0; % NG
	36476	 13.0	 -1.0	 25.0	 -25.0	 1.04	 17.868	 1	 49	 0.0	 0.0	 0.0	 0.0	 0.0	 0.0	 0.0	 0.0	 0.0	 0.0	 0.0	 0.0; % NG
	38071	 4.0	 -1.0	 2.0	 -2.0	 1.01	 1.6	 1	 4	 0.0	 0.0	 0.0	 0.0	 0.0	 0.0	 0.0	 0.0	 0.0	 0.0	 0.0	 0.0; % PEL
	38244	 1.0	 0.0	 2.0	 -2.0	 1.0	 6.5	 0	 4	 0.0	 0.0	 0.0	 0.0	 0.0	 0.0	 0.0	 0.0	 0.0	 0.0	 0.0	 0.0; % PEL
	38271	 2.0	 -1.0	 5.0	 -5.0	 1.04	 11.69	 1	 9	 0.0	 0.0	 0.0	 0.0	 0.0	 0.0	 0.0	 0.0	 0.0	 0.0	 0.0	 0.0; % NG
	38272	 3.0	 -2.0	 6.0	 -6.0	 1.04	 5.01	 1	 12	 0.0	 0.0	 0.0	 0.0	 0.0	 0.0	 0.0	 0.0	 0.0	 0.0	 0.0	 0.0; % NG
	38273	 3.0	 -2.0	 3.0	 -3.0	 1.05	 8.35	 1	 6	 0.0	 0.0	 0.0	 0.0	 0.0	 0.0	 0.0	 0.0	 0.0	 0.0	 0.0	 0.0; % NG
	38870	 10.0	 1.0	 17.0	 -17.0	 1.04	 25.3	 1	 33	 0.0	 0.0	 0.0	 0.0	 0.0	 0.0	 0.0	 0.0	 0.0	 0.0	 0.0	 0.0; % NG
	38871	 9.0	 1.0	 13.0	 -13.0	 1.0	 10.0	 1	 26	 0.0	 0.0	 0.0	 0.0	 0.0	 0.0	 0.0	 0.0	 0.0	 0.0	 0.0	 0.0; % NG
	39471	 120.0	 92.0	 193.0	 -193.0	 1.05	 359.0	 1	 385	 49.5	 0.0	 0.0	 0.0	 0.0	 0.0	 0.0	 0.0	 0.0	 0.0	 0.0	 0.0; % NG
	39472	 120.0	 86.0	 176.0	 -176.0	 1.05	 359.0	 1	 351	 49.5	 0.0	 0.0	 0.0	 0.0	 0.0	 0.0	 0.0	 0.0	 0.0	 0.0	 0.0; % NG
	39473	 120.0	 99.0	 176.0	 -149.0	 1.05	 359.0	 1	 297	 49.5	 0.0	 0.0	 0.0	 0.0	 0.0	 0.0	 0.0	 0.0	 0.0	 0.0	 0.0; % NG
	39675	 90.0	 0.0	 62.0	 -62.0	 1.05	 100.9	 0	 124	 30.0	 0.0	 0.0	 0.0	 0.0	 0.0	 0.0	 0.0	 0.0	 0.0	 0.0	 0.0; % NG
	40471	 1.0	 -1.0	 2.0	 -2.0	 1.05	 6.9	 1	 4	 0.0	 0.0	 0.0	 0.0	 0.0	 0.0	 0.0	 0.0	 0.0	 0.0	 0.0	 0.0; % PEL
	40771	 22.0	 -17.0	 20.4	 -20.4	 1.05	 52.9	 1	 31	 0.0	 0.0	 0.0	 0.0	 0.0	 0.0	 0.0	 0.0	 0.0	 0.0	 0.0	 0.0; % PEL
	40772	 20.0	 7.0	 48.0	 -48.0	 1.05	 19.5	 1	 95	 0.0	 0.0	 0.0	 0.0	 0.0	 0.0	 0.0	 0.0	 0.0	 0.0	 0.0	 0.0; % PEL
	40773	 20.0	 6.0	 16.0	 -16.0	 1.05	 16.1	 1	 31	 0.0	 0.0	 0.0	 0.0	 0.0	 0.0	 0.0	 0.0	 0.0	 0.0	 0.0	 0.0; % PEL
	42404	 15.0	 0.0	 29.0	 -29.0	 1.0	 20.0	 0	 57	 3.0	 0.0	 0.0	 0.0	 0.0	 0.0	 0.0	 0.0	 0.0	 0.0	 0.0	 0.0; % NG
	42404	 15.0	 0.0	 14.0	 -14.0	 1.0	 20.0	 0	 27	 3.0	 0.0	 0.0	 0.0	 0.0	 0.0	 0.0	 0.0	 0.0	 0.0	 0.0	 0.0; % COW
	42404	 15.0	 0.0	 28.0	 -28.0	 1.0	 20.0	 0	 56	 3.0	 0.0	 0.0	 0.0	 0.0	 0.0	 0.0	 0.0	 0.0	 0.0	 0.0	 0.0; % NG
	42474	 118.0	 0.0	 164.0	 -164.0	 1.075	 132.1	 0	 327	 20.0	 0.0	 0.0	 0.0	 0.0	 0.0	 0.0	 0.0	 0.0	 0.0	 0.0	 0.0; % COW
	42475	 109.5	 0.0	 65.0	 -65.0	 1.075	 132.1	 0	 130	 10.0	 0.0	 0.0	 0.0	 0.0	 0.0	 0.0	 0.0	 0.0	 0.0	 0.0	 0.0; % NG
	42672	 6.0	 1.0	 12.0	 -12.0	 1.01	 2.55	 1	 23	 0.0	 0.0	 0.0	 0.0	 0.0	 0.0	 0.0	 0.0	 0.0	 0.0	 0.0	 0.0; % PEL
	42673	 7.0	 1.0	 5.0	 -5.0	 1.01	 4.6	 1	 9	 0.0	 0.0	 0.0	 0.0	 0.0	 0.0	 0.0	 0.0	 0.0	 0.0	 0.0	 0.0; % NG
	42674	 6.0	 1.0	 9.0	 -9.0	 1.01	 2.55	 1	 17	 0.0	 0.0	 0.0	 0.0	 0.0	 0.0	 0.0	 0.0	 0.0	 0.0	 0.0	 0.0; % PEL
	43671	 9.0	 2.0	 7.0	 -7.0	 1.0	 6.9	 1	 13	 0.0	 0.0	 0.0	 0.0	 0.0	 0.0	 0.0	 0.0	 0.0	 0.0	 0.0	 0.0; % PEL
	43672	 5.0	 1.0	 11.0	 -11.0	 1.0	 2.3	 1	 22	 0.0	 0.0	 0.0	 0.0	 0.0	 0.0	 0.0	 0.0	 0.0	 0.0	 0.0	 0.0; % NG
	43774	 1.0	 2.0	 10.0	 -10.0	 1.05	 36.8	 1	 4	 0.0	 0.0	 0.0	 0.0	 0.0	 0.0	 0.0	 0.0	 0.0	 0.0	 0.0	 0.0; % NG
	44471	 15.0	 0.0	 12.0	 -12.0	 1.05	 18.8	 0	 23	 2.5	 0.0	 0.0	 0.0	 0.0	 0.0	 0.0	 0.0	 0.0	 0.0	 0.0	 0.0; % NG
	44471	 15.0	 0.0	 29.0	 -29.0	 1.05	 18.8	 0	 57	 2.5	 0.0	 0.0	 0.0	 0.0	 0.0	 0.0	 0.0	 0.0	 0.0	 0.0	 0.0; % NG
	44471	 4.0	 0.0	 7.0	 -7.0	 1.05	 5.0	 0	 13	 0.5	 0.0	 0.0	 0.0	 0.0	 0.0	 0.0	 0.0	 0.0	 0.0	 0.0	 0.0; % NG
	46801	 6.5	 0.0	 9.0	 -9.0	 1.0	 6.75	 0	 17	 1.0	 0.0	 0.0	 0.0	 0.0	 0.0	 0.0	 0.0	 0.0	 0.0	 0.0	 0.0; % COW
	46854	 3.2	 0.0	 8.0	 -8.0	 1.0	 3.2	 0	 15	 1.6	 0.0	 0.0	 0.0	 0.0	 0.0	 0.0	 0.0	 0.0	 0.0	 0.0	 0.0; % PEL
	46870	 4.0	 -1.0	 3.0	 -3.0	 1.0	 4.6	 1	 6	 0.0	 0.0	 0.0	 0.0	 0.0	 0.0	 0.0	 0.0	 0.0	 0.0	 0.0	 0.0; % PEL
	46873	 5.0	 -1.0	 9.0	 -9.0	 1.0	 15.0	 1	 18	 0.0	 0.0	 0.0	 0.0	 0.0	 0.0	 0.0	 0.0	 0.0	 0.0	 0.0	 0.0; % NG
	46874	 6.0	 -3.0	 4.0	 -5.0	 1.0	 17.868	 1	 7	 0.0	 0.0	 0.0	 0.0	 0.0	 0.0	 0.0	 0.0	 0.0	 0.0	 0.0	 0.0; % NG
	46875	 2.4	 0.0	 2.0	 -2.0	 1.0	 3.0	 0	 3	 0.0	 0.0	 0.0	 0.0	 0.0	 0.0	 0.0	 0.0	 0.0	 0.0	 0.0	 0.0; % PEL
	47871	 37.0	 7.0	 28.0	 -28.0	 1.05	 53.44	 1	 56	 0.0	 0.0	 0.0	 0.0	 0.0	 0.0	 0.0	 0.0	 0.0	 0.0	 0.0	 0.0; % NG
	47872	 21.0	 1.0	 30.0	 -30.0	 1.05	 28.39	 1	 59	 0.0	 0.0	 0.0	 0.0	 0.0	 0.0	 0.0	 0.0	 0.0	 0.0	 0.0	 0.0; % PEL
	47873	 15.0	 -2.0	 28.0	 -28.0	 1.05	 6.68	 1	 56	 0.0	 0.0	 0.0	 0.0	 0.0	 0.0	 0.0	 0.0	 0.0	 0.0	 0.0	 0.0; % NG
	49474	 429.0	 36.0	 235.0	 -235.0	 1.075	 181.7	 1	 469	 27.5	 0.0	 0.0	 0.0	 0.0	 0.0	 0.0	 0.0	 0.0	 0.0	 0.0	 0.0; % NG
	49604	 0.7	 0.0	 1.0	 -1.0	 1.0	 1.0	 0	 2	 0.0	 0.0	 0.0	 0.0	 0.0	 0.0	 0.0	 0.0	 0.0	 0.0	 0.0	 0.0; % PEL
	49672	 3.0	 1.0	 4.0	 -4.0	 1.04	 3.34	 1	 7	 0.0	 0.0	 0.0	 0.0	 0.0	 0.0	 0.0	 0.0	 0.0	 0.0	 0.0	 0.0; % PEL
	49971	 35.0	 -9.0	 20.0	 -20.0	 1.02	 32.0	 1	 40	 0.0	 0.0	 0.0	 0.0	 0.0	 0.0	 0.0	 0.0	 0.0	 0.0	 0.0	 0.0; % COW
	49973	 15.0	 2.0	 18.0	 -18.0	 1.02	 6.9	 1	 36	 0.0	 0.0	 0.0	 0.0	 0.0	 0.0	 0.0	 0.0	 0.0	 0.0	 0.0	 0.0; % NG
	49975	 3.0	 -1.0	 2.0	 -2.0	 1.02	 4.6	 1	 4	 0.0	 0.0	 0.0	 0.0	 0.0	 0.0	 0.0	 0.0	 0.0	 0.0	 0.0	 0.0; % NG
	49976	 4.0	 -1.0	 4.0	 -4.0	 1.02	 9.2	 1	 8	 0.0	 0.0	 0.0	 0.0	 0.0	 0.0	 0.0	 0.0	 0.0	 0.0	 0.0	 0.0; % NG
	49980	 5.0	 -1.0	 8.0	 -8.0	 1.02	 2.3	 1	 16	 0.0	 0.0	 0.0	 0.0	 0.0	 0.0	 0.0	 0.0	 0.0	 0.0	 0.0	 0.0; % PEL
	50071	 5.0	 -1.0	 12.0	 -12.0	 1.05	 7.65	 1	 24	 0.0	 0.0	 0.0	 0.0	 0.0	 0.0	 0.0	 0.0	 0.0	 0.0	 0.0	 0.0; % NG
...
];

%% generator cost data
%	2	startup	shutdown	n	c(n-1)	...	c0
mpc.gencost = [
	2	 0.0	 0.0	 3	   0.000000	   1.418012	   0.000000; % NG
	2	 0.0	 0.0	 3	   0.000000	   6.835764	   0.000000; % PEL
	2	 0.0	 0.0	 3	   0.000000	   6.542987	   0.000000; % PEL
	2	 0.0	 0.0	 3	   0.000000	   6.938882	   0.000000; % PEL
	2	 0.0	 0.0	 3	   0.000000	   1.085293	   0.000000; % COW
	2	 0.0	 0.0	 3	   0.000000	   6.756985	   0.000000; % PEL
	2	 0.0	 0.0	 3	   0.000000	   1.024064	   0.000000; % COW
	2	 0.0	 0.0	 3	   0.000000	   1.145874	   0.000000; % NG
	2	 0.0	 0.0	 3	   0.000000	   1.396261	   0.000000; % NG
	2	 0.0	 0.0	 3	   0.000000	   1.249612	   0.000000; % NG
	2	 0.0	 0.0	 3	   0.000000	   0.673612	   0.000000; % NG
	2	 0.0	 0.0	 3	   0.000000	   0.944883	   0.000000; % NG
	2	 0.0	 0.0	 3	   0.000000	   6.799578	   0.000000; % PEL
	2	 0.0	 0.0	 3	   0.000000	   7.392659	   0.000000; % PEL
	2	 0.0	 0.0	 3	   0.000000	   6.566830	   0.000000; % PEL
	2	 0.0	 0.0	 3	   0.000000	   6.816638	   0.000000; % PEL
	2	 0.0	 0.0	 3	   0.000000	   7.036280	   0.000000; % PEL
	2	 0.0	 0.0	 3	   0.000000	   7.201575	   0.000000; % PEL
	2	 0.0	 0.0	 3	   0.000000	   1.037887	   0.000000; % NG
	2	 0.0	 0.0	 3	   0.000000	   1.022316	   0.000000; % NG
	2	 0.0	 0.0	 3	   0.000000	   6.616339	   0.000000; % PEL
	2	 0.0	 0.0	 3	   0.000000	   1.175217	   0.000000; % NG
	2	 0.0	 0.0	 3	   0.000000	   6.845992	   0.000000; % PEL
	2	 0.0	 0.0	 3	   0.000000	   1.501846	   0.000000; % NG
	2	 0.0	 0.0	 3	   0.000000	   1.246970	   0.000000; % NG
	2	 0.0	 0.0	 3	   0.000000	   1.173697	   0.000000; % NG
	2	 0.0	 0.0	 3	   0.000000	   0.772938	   0.000000; % NG
	2	 0.0	 0.0	 3	   0.000000	   0.500716	   0.000000; % COW
	2	 0.0	 0.0	 3	   0.000000	   1.060502	   0.000000; % NG
	2	 0.0	 0.0	 3	   0.000000	   1.146232	   0.000000; % NG
	2	 0.0	 0.0	 3	   0.000000	   1.213413	   0.000000; % NG
	2	 0.0	 0.0	 3	   0.000000	   7.558738	   0.000000; % PEL
	2	 0.0	 0.0	 3	   0.000000	   6.994706	   0.000000; % PEL
	2	 0.0	 0.0	 3	   0.000000	   1.362487	   0.000000; % NG
	2	 0.0	 0.0	 3	   0.000000	   6.483309	   0.000000; % PEL
	2	 0.0	 0.0	 3	   0.000000	   1.232109	   0.000000; % NG
	2	 0.0	 0.0	 3	   0.000000	   1.065221	   0.000000; % NG
	2	 0.0	 0.0	 3	   0.000000	   7.070731	   0.000000; % PEL
	2	 0.0	 0.0	 3	   0.000000	   0.462028	   0.000000; % COW
	2	 0.0	 0.0	 3	   0.000000	   6.098367	   0.000000; % PEL
	2	 0.0	 0.0	 3	   0.000000	   6.776576	   0.000000; % PEL
	2	 0.0	 0.0	 3	   0.000000	   6.465386	   0.000000; % PEL
	2	 0.0	 0.0	 3	   0.000000	   0.710840	   0.000000; % NG
	2	 0.0	 0.0	 3	   0.000000	   1.113796	   0.000000; % NG
	2	 0.0	 0.0	 3	   0.000000	   1.053912	   0.000000; % NG
	2	 0.0	 0.0	 3	   0.000000	   0.968008	   0.000000; % NG
	2	 0.0	 0.0	 3	   0.000000	   6.803884	   0.000000; % PEL
	2	 0.0	 0.0	 3	   0.000000	   0.881277	   0.000000; % COW
	2	 0.0	 0.0	 3	   0.000000	   1.053911	   0.000000; % NG
	2	 0.0	 0.0	 3	   0.000000	   6.757631	   0.000000; % PEL
	2	 0.0	 0.0	 3	   0.000000	   1.092443	   0.000000; % NG
	2	 0.0	 0.0	 3	   0.000000	   6.594562	   0.000000; % PEL
	2	 0.0	 0.0	 3	   0.000000	   0.812771	   0.000000; % NG
	2	 0.0	 0.0	 3	   0.000000	   7.014872	   0.000000; % PEL
	2	 0.0	 0.0	 3	   0.000000	   0.836928	   0.000000; % NG
	2	 0.0	 0.0	 3	   0.000000	   1.149143	   0.000000; % NG
	2	 0.0	 0.0	 3	   0.000000	   7.325946	   0.000000; % PEL
	2	 0.0	 0.0	 3	   0.000000	   0.951333	   0.000000; % NG
	2	 0.0	 0.0	 3	   0.000000	   7.162478	   0.000000; % PEL
	2	 0.0	 0.0	 3	   0.000000	   6.207048	   0.000000; % PEL
	2	 0.0	 0.0	 3	   0.000000	   1.068216	   0.000000; % NG
	2	 0.0	 0.0	 3	   0.000000	   1.264560	   0.000000; % NG
	2	 0.0	 0.0	 3	   0.000000	   1.051207	   0.000000; % NG
	2	 0.0	 0.0	 3	   0.000000	   6.360678	   0.000000; % PEL
	2	 0.0	 0.0	 3	   0.000000	   1.329596	   0.000000; % NG
	2	 0.0	 0.0	 3	   0.000000	   6.526324	   0.000000; % PEL
	2	 0.0	 0.0	 3	   0.000000	   1.174774	   0.000000; % NG
	2	 0.0	 0.0	 3	   0.000000	   7.390486	   0.000000; % PEL
	2	 0.0	 0.0	 3	   0.000000	   0.000000	   0.000000; % SYNC
	2	 0.0	 0.0	 3	   0.000000	   1.174616	   0.000000; % NG
	2	 0.0	 0.0	 3	   0.000000	   1.551440	   0.000000; % NG
	2	 0.0	 0.0	 3	   0.000000	   0.418677	   0.000000; % COW
	2	 0.0	 0.0	 3	   0.000000	   0.962418	   0.000000; % NG
	2	 0.0	 0.0	 3	   0.000000	   6.777699	   0.000000; % PEL
	2	 0.0	 0.0	 3	   0.000000	   6.695976	   0.000000; % PEL
	2	 0.0	 0.0	 3	   0.000000	   1.081811	   0.000000; % NG
	2	 0.0	 0.0	 3	   0.000000	   1.046262	   0.000000; % NG
	2	 0.0	 0.0	 3	   0.000000	   1.049506	   0.000000; % NG
	2	 0.0	 0.0	 3	   0.000000	   1.156606	   0.000000; % NG
	2	 0.0	 0.0	 3	   0.000000	   1.290203	   0.000000; % NG
	2	 0.0	 0.0	 3	   0.000000	   7.452536	   0.000000; % PEL
	2	 0.0	 0.0	 3	   0.000000	   1.158421	   0.000000; % NG
	2	 0.0	 0.0	 3	   0.000000	   7.070499	   0.000000; % PEL
	2	 0.0	 0.0	 3	   0.000000	   1.002379	   0.000000; % NG
	2	 0.0	 0.0	 3	   0.000000	   1.367796	   0.000000; % NG
	2	 0.0	 0.0	 3	   0.000000	   7.349635	   0.000000; % PEL
	2	 0.0	 0.0	 3	   0.000000	   1.059446	   0.000000; % NG
	2	 0.0	 0.0	 3	   0.000000	   0.769013	   0.000000; % NG
	2	 0.0	 0.0	 3	   0.000000	   1.084595	   0.000000; % NG
	2	 0.0	 0.0	 3	   0.000000	   0.948451	   0.000000; % NG
	2	 0.0	 0.0	 3	   0.000000	   6.937058	   0.000000; % PEL
	2	 0.0	 0.0	 3	   0.000000	   1.238352	   0.000000; % NG
	2	 0.0	 0.0	 3	   0.000000	   1.160559	   0.000000; % NG
	2	 0.0	 0.0	 3	   0.000000	   6.544336	   0.000000; % PEL
	2	 0.0	 0.0	 3	   0.000000	   0.721903	   0.000000; % NG
	2	 0.0	 0.0	 3	   0.000000	   6.637299	   0.000000; % PEL
	2	 0.0	 0.0	 3	   0.000000	   0.640408	   0.000000; % NG
	2	 0.0	 0.0	 3	   0.000000	   6.956887	   0.000000; % PEL
	2	 0.0	 0.0	 3	   0.000000	   6.701646	   0.000000; % PEL
	2	 0.0	 0.0	 3	   0.000000	   1.136122	   0.000000; % NG
	2	 0.0	 0.0	 3	   0.000000	   7.001288	   0.000000; % PEL
	2	 0.0	 0.0	 3	   0.000000	   0.892170	   0.000000; % NG
	2	 0.0	 0.0	 3	   0.000000	   7.114013	   0.000000; % PEL
	2	 0.0	 0.0	 3	   0.000000	   1.251273	   0.000000; % NG
	2	 0.0	 0.0	 3	   0.000000	   0.000000	   0.000000; % SYNC
	2	 0.0	 0.0	 3	   0.000000	   6.768113	   0.000000; % PEL
	2	 0.0	 0.0	 3	   0.000000	   1.038772	   0.000000; % NG
	2	 0.0	 0.0	 3	   0.000000	   1.138536	   0.000000; % NG
	2	 0.0	 0.0	 3	   0.000000	   0.886018	   0.000000; % NG
	2	 0.0	 0.0	 3	   0.000000	   0.499583	   0.000000; % COW
	2	 0.0	 0.0	 3	   0.000000	   1.235885	   0.000000; % NG
	2	 0.0	 0.0	 3	   0.000000	   6.854242	   0.000000; % PEL
	2	 0.0	 0.0	 3	   0.000000	   0.721750	   0.000000; % NG
	2	 0.0	 0.0	 3	   0.000000	   7.315253	   0.000000; % PEL
	2	 0.0	 0.0	 3	   0.000000	   7.275812	   0.000000; % PEL
	2	 0.0	 0.0	 3	   0.000000	   1.215760	   0.000000; % NG
	2	 0.0	 0.0	 3	   0.000000	   0.876925	   0.000000; % NG
	2	 0.0	 0.0	 3	   0.000000	   1.080158	   0.000000; % NG
	2	 0.0	 0.0	 3	   0.000000	   1.011500	   0.000000; % NG
	2	 0.0	 0.0	 3	   0.000000	   7.271387	   0.000000; % PEL
	2	 0.0	 0.0	 3	   0.000000	   6.741339	   0.000000; % PEL
	2	 0.0	 0.0	 3	   0.000000	   0.935614	   0.000000; % NG
	2	 0.0	 0.0	 3	   0.000000	   1.544520	   0.000000; % NG
	2	 0.0	 0.0	 3	   0.000000	   0.940977	   0.000000; % NG
	2	 0.0	 0.0	 3	   0.000000	   1.327214	   0.000000; % NG
	2	 0.0	 0.0	 3	   0.000000	   6.736875	   0.000000; % PEL
	2	 0.0	 0.0	 3	   0.000000	   6.712449	   0.000000; % PEL
	2	 0.0	 0.0	 3	   0.000000	   6.594657	   0.000000; % PEL
	2	 0.0	 0.0	 3	   0.000000	   0.810250	   0.000000; % NG
	2	 0.0	 0.0	 3	   0.000000	   0.869593	   0.000000; % NG
	2	 0.0	 0.0	 3	   0.000000	   1.228421	   0.000000; % NG
	2	 0.0	 0.0	 3	   0.000000	   7.427852	   0.000000; % PEL
	2	 0.0	 0.0	 3	   0.000000	   6.963680	   0.000000; % PEL
	2	 0.0	 0.0	 3	   0.000000	   7.166761	   0.000000; % PEL
	2	 0.0	 0.0	 3	   0.000000	   6.575602	   0.000000; % PEL
	2	 0.0	 0.0	 3	   0.000000	   7.180695	   0.000000; % PEL
	2	 0.0	 0.0	 3	   0.000000	   1.300337	   0.000000; % NG
	2	 0.0	 0.0	 3	   0.000000	   0.813697	   0.000000; % NG
	2	 0.0	 0.0	 3	   0.000000	   0.732482	   0.000000; % COW
	2	 0.0	 0.0	 3	   0.000000	   6.740589	   0.000000; % PEL
	2	 0.0	 0.0	 3	   0.000000	   7.163312	   0.000000; % PEL
	2	 0.0	 0.0	 3	   0.000000	   6.751448	   0.000000; % PEL
	2	 0.0	 0.0	 3	   0.000000	   1.167826	   0.000000; % NG
	2	 0.0	 0.0	 3	   0.000000	   0.992806	   0.000000; % NG
	2	 0.0	 0.0	 3	   0.000000	   7.138594	   0.000000; % PEL
	2	 0.0	 0.0	 3	   0.000000	   7.053424	   0.000000; % PEL
	2	 0.0	 0.0	 3	   0.000000	   7.089439	   0.000000; % PEL
	2	 0.0	 0.0	 3	   0.000000	   6.859230	   0.000000; % PEL
	2	 0.0	 0.0	 3	   0.000000	   0.849208	   0.000000; % NG
	2	 0.0	 0.0	 3	   0.000000	   0.884359	   0.000000; % NG
	2	 0.0	 0.0	 3	   0.000000	   0.931690	   0.000000; % NG
	2	 0.0	 0.0	 3	   0.000000	   1.340761	   0.000000; % NG
	2	 0.0	 0.0	 3	   0.000000	   1.011779	   0.000000; % NG
	2	 0.0	 0.0	 3	   0.000000	   7.153461	   0.000000; % PEL
	2	 0.0	 0.0	 3	   0.000000	   6.913971	   0.000000; % PEL
	2	 0.0	 0.0	 3	   0.000000	   0.993061	   0.000000; % NG
	2	 0.0	 0.0	 3	   0.000000	   0.925001	   0.000000; % NG
	2	 0.0	 0.0	 3	   0.000000	   1.359894	   0.000000; % NG
	2	 0.0	 0.0	 3	   0.000000	   0.818443	   0.000000; % NG
	2	 0.0	 0.0	 3	   0.000000	   0.984675	   0.000000; % NG
	2	 0.0	 0.0	 3	   0.000000	   1.201875	   0.000000; % NG
	2	 0.0	 0.0	 3	   0.000000	   0.862110	   0.000000; % NG
	2	 0.0	 0.0	 3	   0.000000	   1.276011	   0.000000; % NG
	2	 0.0	 0.0	 3	   0.000000	   0.940886	   0.000000; % NG
	2	 0.0	 0.0	 3	   0.000000	   7.369967	   0.000000; % PEL
	2	 0.0	 0.0	 3	   0.000000	   7.042301	   0.000000; % PEL
	2	 0.0	 0.0	 3	   0.000000	   6.822176	   0.000000; % PEL
	2	 0.0	 0.0	 3	   0.000000	   7.452196	   0.000000; % PEL
	2	 0.0	 0.0	 3	   0.000000	   0.965172	   0.000000; % NG
	2	 0.0	 0.0	 3	   0.000000	   0.782795	   0.000000; % COW
	2	 0.0	 0.0	 3	   0.000000	   1.091109	   0.000000; % NG
	2	 0.0	 0.0	 3	   0.000000	   0.334261	   0.000000; % COW
	2	 0.0	 0.0	 3	   0.000000	   1.090795	   0.000000; % NG
	2	 0.0	 0.0	 3	   0.000000	   6.916686	   0.000000; % PEL
	2	 0.0	 0.0	 3	   0.000000	   0.778152	   0.000000; % NG
	2	 0.0	 0.0	 3	   0.000000	   6.716011	   0.000000; % PEL
	2	 0.0	 0.0	 3	   0.000000	   6.718873	   0.000000; % PEL
	2	 0.0	 0.0	 3	   0.000000	   0.951527	   0.000000; % NG
	2	 0.0	 0.0	 3	   0.000000	   0.672726	   0.000000; % NG
	2	 0.0	 0.0	 3	   0.000000	   0.906850	   0.000000; % NG
	2	 0.0	 0.0	 3	   0.000000	   1.004793	   0.000000; % NG
	2	 0.0	 0.0	 3	   0.000000	   1.118269	   0.000000; % NG
	2	 0.0	 0.0	 3	   0.000000	   0.739550	   0.000000; % COW
	2	 0.0	 0.0	 3	   0.000000	   6.445037	   0.000000; % PEL
	2	 0.0	 0.0	 3	   0.000000	   7.702886	   0.000000; % PEL
	2	 0.0	 0.0	 3	   0.000000	   1.019403	   0.000000; % NG
	2	 0.0	 0.0	 3	   0.000000	   1.447156	   0.000000; % NG
	2	 0.0	 0.0	 3	   0.000000	   6.978894	   0.000000; % PEL
	2	 0.0	 0.0	 3	   0.000000	   0.686758	   0.000000; % NG
	2	 0.0	 0.0	 3	   0.000000	   7.104086	   0.000000; % PEL
	2	 0.0	 0.0	 3	   0.000000	   0.951427	   0.000000; % NG
	2	 0.0	 0.0	 3	   0.000000	   1.138946	   0.000000; % NG
	2	 0.0	 0.0	 3	   0.000000	   6.762817	   0.000000; % PEL
	2	 0.0	 0.0	 3	   0.000000	   6.508166	   0.000000; % PEL
	2	 0.0	 0.0	 3	   0.000000	   0.557906	   0.000000; % COW
	2	 0.0	 0.0	 3	   0.000000	   0.993952	   0.000000; % NG
	2	 0.0	 0.0	 3	   0.000000	   0.637830	   0.000000; % NG
	2	 0.0	 0.0	 3	   0.000000	   1.255453	   0.000000; % NG
	2	 0.0	 0.0	 3	   0.000000	   6.552725	   0.000000; % PEL
	2	 0.0	 0.0	 3	   0.000000	   0.794342	   0.000000; % NG
...
];

%% branch data
%	fbus	tbus	r	x	b	rateA	rateB	rateC	ratio	angle	status	angmin	angmax
mpc.branch = [
	11	 42404	 0.0036	 0.00391	 0.00207	 100.0	 100.0	 110.0	 0.0	 0.0	 1	 -30.0	 30.0;
	12	 25404	 0.00534	 0.00795	 0.00407	 3604.0	 3604.0	 3604.0	 0.0	 0.0	 1	 -30.0	 30.0;
	12	 25404	 0.00594	 0.00866	 0.00435	 3287.0	 3287.0	 3287.0	 0.0	 0.0	 1	 -30.0	 30.0;
	12	 46504	 0.02132	 0.02114	 0.00329	 1149.0	 1149.0	 1149.0	 0.0	 0.0	 1	 -30.0	 30.0;
	12	 46504	 0.01937	 0.01703	 0.00256	 1338.0	 1338.0	 1338.0	 0.0	 0.0	 1	 -30.0	 30.0;
	1021	 2121	 0.0286	 0.067	 0.0059	 105.0	 105.0	 115.5	 0.0	 0.0	 1	 -30.0	 30.0;
	1021	 2361	 0.0513	 0.1172	 0.0106	 105.0	 105.0	 115.5	 0.0	 0.0	 1	 -30.0	 30.0;
	1021	 3541	 0.0071	 0.037	 0.0116	 99.0	 99.0	 108.9	 0.0	 0.0	 1	 -30.0	 30.0;
	1021	 10210	 0.0	 0.0001	 0.0	 999.0	 999.0	 1098.9	 0.0	 0.0	 1	 -30.0	 30.0;
	1021	 10261	 0.0	 0.0001	 0.0	 105.0	 105.0	 115.5	 0.0	 0.0	 1	 -30.0	 30.0;
	1041	 5481	 0.0049	 0.0107	 0.001	 105.0	 105.0	 115.5	 0.0	 0.0	 1	 -30.0	 30.0;
	1042	 1052	 0.0	 0.0001	 0.0	 9999.0	 9999.0	 10998.9	 0.0	 0.0	 0	 -30.0	 30.0;
	1042	 1062	 0.0	 0.0001	 0.0	 593.0	 593.0	 652.3	 0.0	 0.0	 1	 -30.0	 30.0;
	1042	 1072	 0.0001	 0.0006	 0.0384	 593.0	 593.0	 652.3	 0.0	 0.0	 1	 -30.0	 30.0;
	1042	 3202	 0.003	 0.0222	 0.0335	 434.0	 434.0	 477.4	 0.0	 0.0	 1	 -30.0	 30.0;
	1042	 4722	 0.0012	 0.0078	 0.2591	 434.0	 434.0	 477.4	 0.0	 0.0	 1	 -30.0	 30.0;
	1042	 35771	 0.0001	 0.0004	 0.0265	 593.0	 593.0	 652.3	 0.0	 0.0	 1	 -30.0	 30.0;
	1052	 1062	 0.0	 0.0001	 0.0	 999.0	 999.0	 1098.9	 0.0	 0.0	 0	 -30.0	 30.0;
	1052	 2852	 0.0002	 0.0015	 0.1035	 593.0	 593.0	 652.3	 0.0	 0.0	 1	 -30.0	 30.0;
	1052	 3202	 0.003	 0.0222	 0.0335	 434.0	 434.0	 477.4	 0.0	 0.0	 1	 -30.0	 30.0;
	1061	 10619	 0.0004	 0.0008	 0.0001	 105.0	 105.0	 115.5	 0.0	 0.0	 1	 -30.0	 30.0;
	1062	 1072	 0.0	 0.0001	 0.0	 999.0	 999.0	 1098.9	 0.0	 0.0	 0	 -30.0	 30.0;
	1071	 2231	 0.0125	 0.0276	 0.0026	 105.0	 105.0	 115.5	 0.0	 0.0	 1	 -30.0	 30.0;
	1071	 2361	 0.0594	 0.1314	 0.0123	 105.0	 105.0	 115.5	 0.0	 0.0	 1	 -30.0	 30.0;
	1071	 4941	 0.0718	 0.1589	 0.0148	 105.0	 105.0	 115.5	 0.0	 0.0	 1	 -30.0	 30.0;
	1081	 32810	 0.0039	 0.0123	 0.0035	 68.0	 112.0	 123.2	 0.0	 0.0	 1	 -30.0	 30.0;
	1101	 2161	 0.0031	 0.0069	 0.0006	 45.0	 105.0	 115.5	 0.0	 0.0	 1	 -30.0	 30.0;
	1121	 1301	 0.0102	 0.0787	 0.0071	 136.0	 136.0	 149.6	 0.0	 0.0	 1	 -30.0	 30.0;
	1121	 1541	 0.0207	 0.0952	 0.0102	 137.0	 178.0	 195.8	 0.0	 0.0	 1	 -30.0	 30.0;
	1121	 4901	 0.0035	 0.0077	 0.0008	 34.0	 34.0	 37.4	 0.0	 0.0	 1	 -30.0	 30.0;
	1122	 1742	 0.0062	 0.0462	 0.0697	 434.0	 434.0	 477.4	 0.0	 0.0	 1	 -30.0	 30.0;
	1122	 3642	 0.0046	 0.0338	 0.051	 434.0	 434.0	 477.4	 0.0	 0.0	 1	 -30.0	 30.0;
	1141	 3501	 0.054	 0.123	 0.0116	 105.0	 105.0	 115.5	 0.0	 0.0	 1	 -30.0	 30.0;
	1141	 4941	 0.0135	 0.0696	 0.0113	 137.0	 178.0	 195.8	 0.0	 0.0	 1	 -30.0	 30.0;
	1141	 11461	 0.0	 0.0001	 0.0	 105.0	 105.0	 115.5	 0.0	 0.0	 1	 -30.0	 30.0;
	1161	 1781	 0.001	 0.002	 0.0011	 96.0	 96.0	 105.6	 0.0	 0.0	 1	 -30.0	 30.0;
	1161	 3901	 0.0173	 0.0894	 0.0097	 178.0	 178.0	 195.8	 0.0	 0.0	 1	 -30.0	 30.0;
	1161	 5051	 0.0006	 0.0012	 0.0061	 120.0	 120.0	 132.0	 0.0	 0.0	 1	 -30.0	 30.0;
	1161	 5071	 0.0006	 0.0012	 0.0061	 120.0	 120.0	 132.0	 0.0	 0.0	 1	 -30.0	 30.0;
	1161	 17810	 0.001	 0.0021	 0.0012	 96.0	 96.0	 105.6	 0.0	 0.0	 1	 -30.0	 30.0;
	1161	 51410	 0.0214	 0.1105	 0.012	 178.0	 178.0	 195.8	 0.0	 0.0	 1	 -30.0	 30.0;
	1181	 1861	 0.0644	 0.1424	 0.0133	 105.0	 105.0	 115.5	 0.0	 0.0	 1	 -30.0	 30.0;
	1181	 2821	 0.0193	 0.0994	 0.0108	 178.0	 178.0	 195.8	 0.0	 0.0	 1	 -30.0	 30.0;
	1181	 4221	 0.0381	 0.1969	 0.0214	 120.0	 120.0	 132.0	 0.0	 0.0	 1	 -30.0	 30.0;
	1181	 4961	 0.0292	 0.0645	 0.006	 80.0	 80.0	 88.0	 0.0	 0.0	 1	 -30.0	 30.0;
	1181	 4961	 0.0148	 0.0763	 0.0097	 178.0	 178.0	 195.8	 0.0	 0.0	 1	 -30.0	 30.0;
	1201	 2561	 0.0047	 0.0101	 0.0548	 120.0	 120.0	 132.0	 0.0	 0.0	 1	 -30.0	 30.0;
	1201	 3781	 0.0026	 0.0055	 0.0298	 120.0	 120.0	 132.0	 0.0	 0.0	 1	 -30.0	 30.0;
	1221	 1901	 0.0389	 0.086	 0.008	 105.0	 105.0	 115.5	 0.0	 0.0	 1	 -30.0	 30.0;
	1221	 4481	 0.0414	 0.0915	 0.0086	 105.0	 105.0	 115.5	 0.0	 0.0	 1	 -30.0	 30.0;
	1231	 1841	 0.0111	 0.03	 0.1366	 68.0	 116.0	 127.6	 0.0	 0.0	 1	 -30.0	 30.0;
	1251	 2361	 0.0373	 0.0826	 0.0077	 105.0	 105.0	 115.5	 0.0	 0.0	 1	 -30.0	 30.0;
	1251	 52219	 0.0305	 0.0674	 0.0063	 105.0	 105.0	 115.5	 0.0	 0.0	 1	 -30.0	 30.0;
	1271	 2041	 0.0106	 0.0546	 0.006	 178.0	 178.0	 195.8	 0.0	 0.0	 1	 -30.0	 30.0;
	1271	 2181	 0.0126	 0.065	 0.0071	 178.0	 178.0	 195.8	 0.0	 0.0	 1	 -30.0	 30.0;
	1281	 2221	 0.0426	 0.0943	 0.0098	 68.0	 105.0	 115.5	 0.0	 0.0	 1	 -30.0	 30.0;
	1301	 17411	 0.0148	 0.1159	 0.0104	 136.0	 136.0	 149.6	 0.0	 0.0	 1	 -30.0	 30.0;
	1321	 13219	 0.0006	 0.0017	 0.0002	 136.0	 136.0	 149.6	 0.0	 0.0	 1	 -30.0	 30.0;
	1341	 1701	 0.0533	 0.1178	 0.011	 105.0	 105.0	 115.5	 0.0	 0.0	 1	 -30.0	 30.0;
	1351	 4081	 0.0121	 0.0367	 0.031	 120.0	 120.0	 132.0	 0.0	 0.0	 1	 -30.0	 30.0;
	1351	 4201	 0.0073	 0.0214	 0.0295	 120.0	 120.0	 132.0	 0.0	 0.0	 1	 -30.0	 30.0;
	1361	 2001	 0.0312	 0.0751	 0.0073	 187.0	 187.0	 205.7	 0.0	 0.0	 1	 -30.0	 30.0;
	1361	 2161	 0.0176	 0.0389	 0.0037	 105.0	 105.0	 115.5	 0.0	 0.0	 1	 -30.0	 30.0;
	1381	 1391	 0.0	 0.0001	 0.0	 136.0	 136.0	 149.6	 0.0	 0.0	 0	 -30.0	 30.0;
	1381	 4721	 0.0027	 0.0059	 0.0006	 63.0	 63.0	 69.3	 0.0	 0.0	 1	 -30.0	 30.0;
	1391	 4731	 0.0021	 0.0061	 0.0007	 105.0	 105.0	 115.5	 0.0	 0.0	 1	 -30.0	 30.0;
	1401	 1661	 0.0579	 0.1281	 0.013	 105.0	 105.0	 115.5	 0.0	 0.0	 1	 -30.0	 30.0;
...